<?xml version="1.0" encoding="UTF-8"?>

<!-- generated on Wed Sep 27 23:59:24 2017 by SUMO polyconvert Version 0.30.0
<?xml version="1.0" encoding="UTF-8"?>

<configuration xmlns:xsi="http://www.w3.org/2001/XMLSchema-instance" xsi:noNamespaceSchemaLocation="http://sumo.dlr.de/xsd/polyconvertConfiguration.xsd">

    <input>
        <net-file value="smallmap.net.xml"/>
        <osm-files value="smallmap.osm"/>
        <type-file value="typemap.xml"/>
    </input>

    <output>
        <output-file value="smallmap.poly.xml"/>
    </output>

    <processing>
        <poi-layer-offset value="5"/>
    </processing>

</configuration>
-->

<additional xmlns:xsi="http://www.w3.org/2001/XMLSchema-instance" xsi:noNamespaceSchemaLocation="http://sumo.dlr.de/xsd/additional_file.xsd">
    <location netOffset="-600696.32,-4721927.09" convBoundary="-0.00,-0.00,1981.00,2252.60" origBoundary="-73.771350,42.643117,-73.747388,42.663457" projParameter="+proj=utm +zone=18 +ellps=WGS84 +datum=WGS84 +units=m +no_defs"/>

    <poly id="102586985" type="leisure" color="207,245,201" fill="1" layer="-2.00" shape="1060.31,895.59 1028.33,918.89 1004.83,886.85 1036.81,863.55 1060.31,895.59"/>
    <poly id="102586985#1" type="water" color="181,209,209" fill="1" layer="-4.00" shape="1060.31,895.59 1028.33,918.89 1004.83,886.85 1036.81,863.55 1060.31,895.59"/>
    <poly id="102586985#2" type="sport" color="79,230,125" fill="1" layer="-2.00" shape="1060.31,895.59 1028.33,918.89 1004.83,886.85 1036.81,863.55 1060.31,895.59"/>
    <poly id="102590272" type="building" color="255,230,230" fill="1" layer="-1.00" shape="902.09,910.53 892.92,898.24 905.67,891.20 905.14,890.09 903.59,890.83 901.24,886.31 903.44,885.11 937.15,866.78 944.70,876.97 917.52,904.60 916.12,906.02 912.22,902.02 913.45,900.84 912.47,899.95 909.47,903.00 902.09,910.53"/>
    <poly id="102590300" type="building" color="255,230,230" fill="1" layer="-1.00" shape="793.39,764.77 784.23,752.47 797.37,745.69 796.44,744.32 794.89,745.06 792.53,740.54 828.45,721.02 835.99,731.20 808.94,758.73 807.42,760.26 803.52,756.25 804.75,755.07 803.77,754.18 801.43,756.58 793.39,764.77"/>
    <poly id="102590403" type="building" color="255,230,230" fill="1" layer="-1.00" shape="954.90,983.72 945.73,971.42 955.38,966.09 958.48,964.38 957.94,963.28 956.39,964.02 954.04,959.49 957.17,957.79 989.95,939.97 997.50,950.17 971.03,977.08 968.93,979.21 965.02,975.21 966.25,974.03 965.28,973.14 963.85,974.58 954.90,983.72"/>
    <poly id="105520863" type="tourism" color="207,245,201" fill="1" layer="-2.00" shape="999.59,1570.19 1036.31,1534.61 1067.11,1511.98 1080.65,1507.96 1091.36,1501.24 1118.72,1477.84 1142.86,1457.66 1166.73,1441.47 1117.96,1385.81 1043.44,1444.31 1045.14,1463.19 967.59,1525.73 999.59,1570.19"/>
    <poly id="106201549" type="building" color="255,230,230" fill="1" layer="-1.00" shape="1299.89,1203.22 1319.04,1226.42 1335.52,1213.41 1331.18,1207.30 1318.21,1189.90 1299.89,1203.22"/>
    <poly id="106201551" type="building" color="255,230,230" fill="1" layer="-1.00" shape="1299.89,1203.22 1312.30,1219.08 1298.59,1228.81 1287.05,1212.16 1299.89,1203.22"/>
    <poly id="106201553" type="building" color="255,230,230" fill="1" layer="-1.00" shape="1326.13,1184.88 1338.43,1202.18 1331.18,1207.30 1318.21,1189.90 1326.13,1184.88"/>
    <poly id="106201556" type="building" color="255,230,230" fill="1" layer="-1.00" shape="1151.44,1320.97 1162.49,1335.55 1224.79,1288.72 1221.41,1284.30 1231.45,1276.68 1223.79,1266.67 1190.80,1291.74 1188.79,1289.12 1183.66,1293.03 1185.67,1295.65 1151.44,1320.97"/>
    <poly id="106838644" type="tourism" color="207,245,201" fill="1" layer="-2.00" shape="1723.52,1193.61 1732.62,1188.26 1736.12,1189.63 1740.22,1224.31 1723.52,1193.61"/>
    <poly id="106838648" type="landuse" color="194,194,130" fill="1" layer="-3.00" shape="1769.58,1157.27 1761.23,1157.15 1755.97,1155.75 1750.74,1152.83 1745.31,1147.71 1742.11,1141.75 1741.10,1135.38 1741.42,1128.59 1738.78,1128.77 1736.76,1131.15 1739.07,1138.63 1748.06,1155.42 1754.82,1159.24 1754.78,1162.10 1758.96,1162.16 1761.82,1161.53 1764.69,1160.70 1769.58,1157.27"/>
    <poly id="106838655" type="landuse" color="194,194,130" fill="1" layer="-3.00" shape="1822.08,1131.09 1778.96,1147.55 1773.23,1148.56 1768.39,1148.49 1762.02,1147.95 1757.88,1145.48 1754.21,1141.05 1753.61,1136.43 1753.68,1131.84 1755.94,1128.15 1760.38,1124.93 1766.14,1122.38 1776.93,1121.45 1812.35,1120.44 1817.60,1122.26 1819.99,1123.83 1822.08,1131.09"/>
    <poly id="125239545" type="amenity" color="237,199,199" fill="1" layer="-1.00" shape="484.91,1350.85 480.71,1345.34 495.73,1333.97 499.93,1339.46 484.91,1350.85"/>
    <poly id="125239545#1" type="building" color="255,230,230" fill="1" layer="-1.00" shape="484.91,1350.85 480.71,1345.34 495.73,1333.97 499.93,1339.46 484.91,1350.85"/>
    <poly id="125239547" type="amenity" color="237,199,199" fill="1" layer="-1.00" shape="498.64,1468.32 477.71,1440.85 483.93,1436.79 483.57,1430.86 490.47,1425.28 497.25,1428.22 502.96,1424.57 495.69,1414.17 513.47,1401.28 523.75,1416.12 505.36,1429.43 522.12,1450.91 498.64,1468.32"/>
    <poly id="125239547#1" type="building" color="255,230,230" fill="1" layer="-1.00" shape="498.64,1468.32 477.71,1440.85 483.93,1436.79 483.57,1430.86 490.47,1425.28 497.25,1428.22 502.96,1424.57 495.69,1414.17 513.47,1401.28 523.75,1416.12 505.36,1429.43 522.12,1450.91 498.64,1468.32"/>
    <poly id="125239552" type="amenity" color="237,199,199" fill="1" layer="-1.00" shape="486.51,1366.48 486.37,1366.30 517.97,1342.08 510.47,1332.36 512.76,1330.61 506.59,1322.62 509.47,1320.41 503.38,1312.52 500.95,1314.38 498.77,1311.55 492.57,1316.32 491.47,1314.90 485.14,1319.76 486.88,1322.02 470.49,1334.58 468.97,1332.62 468.68,1332.24 462.73,1336.81 462.92,1337.06 463.24,1337.47 461.55,1338.78 461.22,1338.36 453.53,1343.76 451.88,1345.12 452.17,1345.49 467.75,1365.68 479.15,1356.94 486.51,1366.48"/>
    <poly id="125239552#1" type="building" color="255,230,230" fill="1" layer="-1.00" shape="486.51,1366.48 486.37,1366.30 517.97,1342.08 510.47,1332.36 512.76,1330.61 506.59,1322.62 509.47,1320.41 503.38,1312.52 500.95,1314.38 498.77,1311.55 492.57,1316.32 491.47,1314.90 485.14,1319.76 486.88,1322.02 470.49,1334.58 468.97,1332.62 468.68,1332.24 462.73,1336.81 462.92,1337.06 463.24,1337.47 461.55,1338.78 461.22,1338.36 453.53,1343.76 451.88,1345.12 452.17,1345.49 467.75,1365.68 479.15,1356.94 486.51,1366.48"/>
    <poly id="125239817" type="amenity" color="237,199,199" fill="1" layer="-1.00" shape="861.76,1284.31 851.54,1270.92 855.22,1268.13 836.59,1243.70 854.93,1229.82 874.54,1255.52 881.57,1250.19 890.82,1262.31 861.76,1284.31"/>
    <poly id="125239817#1" type="building" color="255,230,230" fill="1" layer="-1.00" shape="861.76,1284.31 851.54,1270.92 855.22,1268.13 836.59,1243.70 854.93,1229.82 874.54,1255.52 881.57,1250.19 890.82,1262.31 861.76,1284.31"/>
    <poly id="125239818" type="amenity" color="237,199,199" fill="1" layer="-1.00" shape="853.73,1193.38 835.01,1168.02 830.88,1171.05 821.22,1157.95 844.08,1141.20 854.37,1155.13 851.20,1157.46 869.29,1181.97 853.73,1193.38"/>
    <poly id="125239818#1" type="building" color="255,230,230" fill="1" layer="-1.00" shape="853.73,1193.38 835.01,1168.02 830.88,1171.05 821.22,1157.95 844.08,1141.20 854.37,1155.13 851.20,1157.46 869.29,1181.97 853.73,1193.38"/>
    <poly id="126826987" type="tourism" color="207,245,201" fill="1" layer="-2.00" shape="1770.37,1221.56 1798.97,1205.47 1832.41,1190.87 1837.79,1183.93 1837.50,1173.40 1829.16,1143.05 1786.72,1159.38 1759.52,1174.70 1764.55,1218.05 1766.01,1221.00 1770.37,1221.56"/>
    <poly id="127254272" type="leisure" color="207,245,201" fill="1" layer="-2.00" shape="1720.42,1151.06 1694.20,1168.85 1691.57,1163.35 1680.09,1139.92 1708.64,1121.52 1720.42,1151.06"/>
    <poly id="127258805" type="tourism" color="207,245,201" fill="1" layer="-2.00" shape="894.95,514.07 884.70,521.15 849.82,471.80 821.66,492.11 862.90,546.62 877.73,553.01 897.09,578.08 906.01,571.25 911.59,566.98 916.81,562.98 928.10,554.98 894.95,514.07"/>
    <poly id="190105165" type="amenity" color="237,199,199" fill="1" layer="-1.00" shape="898.92,547.97 900.58,550.59 907.91,556.86 909.05,554.36 909.53,551.63 909.02,548.99 908.07,546.13 906.57,543.48 904.30,541.25 901.68,539.90 899.16,539.43 896.40,539.93 894.86,540.24 898.92,547.97"/>
    <poly id="190105165#1" type="water" color="181,209,209" fill="1" layer="-4.00" shape="898.92,547.97 900.58,550.59 907.91,556.86 909.05,554.36 909.53,551.63 909.02,548.99 908.07,546.13 906.57,543.48 904.30,541.25 901.68,539.90 899.16,539.43 896.40,539.93 894.86,540.24 898.92,547.97"/>
    <poly id="190105166" type="historic" color="128,255,128" fill="1" layer="-1.00" shape="903.38,563.26 906.01,571.25 911.59,566.98 916.81,562.98 909.14,558.35 910.63,557.07 912.24,552.58 912.04,547.09 910.14,542.72 905.84,538.59 901.40,536.86 898.50,536.45 898.42,534.01 894.01,534.24 890.50,536.29 886.77,539.18 884.22,542.49 882.54,545.76 885.32,546.92 884.97,551.67 886.14,555.98 888.85,559.90 892.76,562.68 897.36,563.95 903.38,563.26"/>
    <poly id="190105167" type="amenity" color="237,199,199" fill="1" layer="-1.00" shape="901.26,561.15 898.19,553.11 896.35,550.67 889.08,544.31 887.84,546.60 887.02,549.98 887.29,553.49 888.36,555.49 890.30,558.02 893.13,560.27 895.21,560.73 898.72,561.22 901.26,561.15"/>
    <poly id="190105167#1" type="water" color="181,209,209" fill="1" layer="-4.00" shape="901.26,561.15 898.19,553.11 896.35,550.67 889.08,544.31 887.84,546.60 887.02,549.98 887.29,553.49 888.36,555.49 890.30,558.02 893.13,560.27 895.21,560.73 898.72,561.22 901.26,561.15"/>
    <poly id="190156226" type="leisure" color="207,245,201" fill="1" layer="-2.00" shape="991.82,1015.02 989.49,1011.65 963.85,974.58 940.84,941.10 891.45,974.91 942.42,1048.83 991.82,1015.02"/>
    <poly id="190156228" type="historic" color="128,255,128" fill="1" layer="-1.00" shape="1095.23,869.77 1120.60,851.47 1129.85,864.19 1142.55,881.69 1117.20,899.98 1104.55,882.58 1095.23,869.77"/>
    <poly id="190156228#1" type="landuse" color="194,194,130" fill="1" layer="-3.00" shape="1095.23,869.77 1120.60,851.47 1129.85,864.19 1142.55,881.69 1117.20,899.98 1104.55,882.58 1095.23,869.77"/>
    <poly id="190156237" type="landuse" color="194,194,130" fill="1" layer="-3.00" shape="1106.55,888.90 1086.83,861.20 1077.86,867.72 1097.58,895.41 1106.55,888.90"/>
    <poly id="190156238" type="amenity" color="237,199,199" fill="1" layer="-1.00" shape="873.65,690.77 865.05,679.28 874.08,672.80 881.59,667.09 890.14,678.52 873.65,690.77"/>
    <poly id="190156240" type="landuse" color="194,194,130" fill="1" layer="-3.00" shape="908.28,614.57 920.56,629.02 925.48,635.25 949.73,616.80 944.13,609.63 955.35,601.65 984.73,639.23 1011.92,620.68 972.30,568.18 908.28,614.57"/>
    <poly id="190156244" type="leisure" color="207,245,201" fill="1" layer="-2.00" shape="783.56,736.76 818.42,781.31 808.57,789.45 802.78,796.00 796.94,804.23 793.72,816.55 793.74,827.03 798.47,838.34 802.88,846.20 796.95,851.11 717.76,748.07 730.97,739.27 740.58,752.43 753.77,760.52 766.18,761.03 777.36,754.19 783.56,736.76"/>
    <poly id="204320627" type="building" color="255,230,230" fill="1" layer="-1.00" shape="543.56,1414.75 538.48,1418.51 549.07,1432.71 554.16,1428.94 543.56,1414.75"/>
    <poly id="204320629" type="building" color="255,230,230" fill="1" layer="-1.00" shape="534.84,1350.97 530.67,1345.38 520.43,1352.99 524.59,1358.57 534.84,1350.97"/>
    <poly id="204320630" type="building" color="255,230,230" fill="1" layer="-1.00" shape="559.72,1424.81 549.13,1410.62 543.56,1414.75 554.16,1428.94 559.72,1424.81"/>
    <poly id="204320632" type="amenity" color="237,199,199" fill="1" layer="-1.00" shape="538.75,1356.20 534.84,1350.97 524.59,1358.57 522.37,1360.21 526.27,1365.45 538.75,1356.20"/>
    <poly id="204320632#1" type="building" color="255,230,230" fill="1" layer="-1.00" shape="538.75,1356.20 534.84,1350.97 524.59,1358.57 522.37,1360.21 526.27,1365.45 538.75,1356.20"/>
    <poly id="204320634" type="building" color="255,230,230" fill="1" layer="-1.00" shape="530.67,1345.38 525.95,1339.05 510.89,1350.20 515.61,1356.55 520.43,1352.99 530.67,1345.38"/>
    <poly id="204320635" type="building" color="255,230,230" fill="1" layer="-1.00" shape="542.58,1361.34 538.75,1356.20 526.27,1365.45 525.33,1366.14 529.16,1371.29 530.90,1369.99 542.58,1361.34"/>
    <poly id="204320635#1" type="shop" color="237,199,255" fill="1" layer="-1.00" shape="542.58,1361.34 538.75,1356.20 526.27,1365.45 525.33,1366.14 529.16,1371.29 530.90,1369.99 542.58,1361.34"/>
    <poly id="204320637" type="building" color="255,230,230" fill="1" layer="-1.00" shape="540.24,1398.73 549.13,1410.62 559.72,1424.81 579.20,1410.38 559.72,1384.29 542.88,1396.76 540.24,1398.73"/>
    <poly id="204323424" type="building" color="255,230,230" fill="1" layer="-1.00" shape="533.63,1384.36 542.88,1396.76 559.72,1384.29 550.45,1371.89 538.78,1380.54 533.63,1384.36"/>
    <poly id="204323425" type="building" color="255,230,230" fill="1" layer="-1.00" shape="538.78,1380.54 550.45,1371.89 546.52,1366.61 534.84,1375.27 538.78,1380.54"/>
    <poly id="204323426" type="building" color="255,230,230" fill="1" layer="-1.00" shape="530.90,1369.99 534.84,1375.27 546.52,1366.61 542.58,1361.34 530.90,1369.99"/>
    <poly id="204388809" type="building" color="255,230,230" fill="1" layer="-1.00" shape="481.89,917.68 488.84,926.95 492.82,932.25 495.23,930.45 494.09,928.92 496.49,927.14 486.70,914.10 481.89,917.68"/>
    <poly id="204424816" type="building" color="255,230,230" fill="1" layer="-1.00" shape="483.36,1210.73 490.80,1205.17 482.18,1193.72 474.74,1199.28 483.36,1210.73"/>
    <poly id="204426302" type="building" color="255,230,230" fill="1" layer="-1.00" shape="509.85,1250.28 508.71,1248.78 502.02,1253.78 501.68,1253.32 491.91,1260.63 497.42,1267.95 507.19,1260.65 506.13,1259.24 509.81,1256.48 510.58,1257.51 517.05,1252.69 513.30,1247.70 509.85,1250.28"/>
    <poly id="204426303" type="building" color="255,230,230" fill="1" layer="-1.00" shape="486.41,1253.33 491.91,1260.63 501.68,1253.32 502.26,1252.89 499.45,1249.17 502.99,1246.52 500.30,1242.95 492.12,1249.06 486.41,1253.33"/>
    <poly id="204426304" type="building" color="255,230,230" fill="1" layer="-1.00" shape="482.23,1247.77 486.41,1253.33 492.12,1249.06 487.83,1243.59 482.23,1247.77"/>
    <poly id="204426305" type="building" color="255,230,230" fill="1" layer="-1.00" shape="497.42,1267.95 504.42,1277.25 514.19,1269.94 507.19,1260.65 497.42,1267.95"/>
    <poly id="204426305#1" type="shop" color="237,199,255" fill="1" layer="-1.00" shape="497.42,1267.95 504.42,1277.25 514.19,1269.94 507.19,1260.65 497.42,1267.95"/>
    <poly id="204428319" type="building" color="255,230,230" fill="1" layer="-1.00" shape="520.58,1288.19 525.06,1294.19 525.38,1294.62 529.97,1291.22 525.17,1284.79 520.58,1288.19"/>
    <poly id="204428320" type="building" color="255,230,230" fill="1" layer="-1.00" shape="539.79,1326.74 548.56,1338.48 560.56,1329.31 551.88,1317.78 551.14,1318.33 539.79,1326.74"/>
    <poly id="204428321" type="building" color="255,230,230" fill="1" layer="-1.00" shape="525.17,1284.79 529.97,1291.22 532.67,1294.83 535.57,1292.69 532.70,1288.86 535.27,1286.95 530.57,1280.79 525.17,1284.79"/>
    <poly id="204428322" type="building" color="255,230,230" fill="1" layer="-1.00" shape="535.86,1321.47 539.79,1326.74 551.14,1318.33 547.21,1313.06 535.86,1321.47"/>
    <poly id="204428323" type="building" color="255,230,230" fill="1" layer="-1.00" shape="531.49,1315.62 535.86,1321.47 547.21,1313.06 542.84,1307.21 531.49,1315.62"/>
    <poly id="204428324" type="building" color="255,230,230" fill="1" layer="-1.00" shape="527.24,1309.91 531.49,1315.62 542.84,1307.21 538.58,1301.52 527.24,1309.91"/>
    <poly id="204428325" type="building" color="255,230,230" fill="1" layer="-1.00" shape="523.38,1304.75 527.24,1309.91 538.58,1301.52 540.73,1299.93 536.87,1294.75 529.54,1300.19 523.38,1304.75"/>
    <poly id="204428326" type="building" color="255,230,230" fill="1" layer="-1.00" shape="518.90,1298.75 523.38,1304.75 529.54,1300.19 525.38,1294.62 525.06,1294.19 518.90,1298.75"/>
    <poly id="204428327" type="building" color="255,230,230" fill="1" layer="-1.00" shape="514.42,1292.76 518.90,1298.75 525.06,1294.19 520.58,1288.19 514.42,1292.76"/>
    <poly id="204432949" type="amenity" color="237,199,199" fill="1" layer="-1.00" shape="567.82,1364.29 571.25,1368.87 585.88,1358.02 582.46,1353.44 576.98,1357.50 567.82,1364.29"/>
    <poly id="204432949#1" type="building" color="255,230,230" fill="1" layer="-1.00" shape="567.82,1364.29 571.25,1368.87 585.88,1358.02 582.46,1353.44 576.98,1357.50 567.82,1364.29"/>
    <poly id="204432951" type="building" color="255,230,230" fill="1" layer="-1.00" shape="586.66,1389.51 593.04,1398.05 603.37,1390.41 596.99,1381.86 593.41,1384.51 586.66,1389.51"/>
    <poly id="204432951#1" type="shop" color="237,199,255" fill="1" layer="-1.00" shape="586.66,1389.51 593.04,1398.05 603.37,1390.41 596.99,1381.86 593.41,1384.51 586.66,1389.51"/>
    <poly id="204432954" type="building" color="255,230,230" fill="1" layer="-1.00" shape="564.41,1359.72 567.82,1364.29 576.98,1357.50 578.64,1356.27 575.23,1351.70 573.57,1352.93 564.41,1359.72"/>
    <poly id="204432957" type="building" color="255,230,230" fill="1" layer="-1.00" shape="560.18,1354.03 564.41,1359.72 573.57,1352.93 574.68,1352.10 575.92,1351.19 571.68,1345.51 560.18,1354.03"/>
    <poly id="204432965" type="building" color="255,230,230" fill="1" layer="-1.00" shape="571.25,1368.87 575.39,1374.42 582.14,1369.40 592.10,1362.03 587.96,1356.48 585.88,1358.02 571.25,1368.87"/>
    <poly id="204432966" type="amenity" color="237,199,199" fill="1" layer="-1.00" shape="581.09,1382.05 586.66,1389.51 593.41,1384.51 597.05,1381.82 591.47,1374.34 587.84,1377.04 581.09,1382.05"/>
    <poly id="204432966#1" type="building" color="255,230,230" fill="1" layer="-1.00" shape="581.09,1382.05 586.66,1389.51 593.41,1384.51 597.05,1381.82 591.47,1374.34 587.84,1377.04 581.09,1382.05"/>
    <poly id="204432969" type="building" color="255,230,230" fill="1" layer="-1.00" shape="575.39,1374.42 581.09,1382.05 587.84,1377.04 590.22,1375.27 584.52,1367.63 582.14,1369.40 575.39,1374.42"/>
    <poly id="204432969#1" type="shop" color="237,199,255" fill="1" layer="-1.00" shape="575.39,1374.42 581.09,1382.05 587.84,1377.04 590.22,1375.27 584.52,1367.63 582.14,1369.40 575.39,1374.42"/>
    <poly id="204435317" type="building" color="255,230,230" fill="1" layer="-1.00" shape="635.84,1389.92 630.68,1393.82 641.11,1407.50 646.26,1403.60 635.84,1389.92"/>
    <poly id="204435318" type="building" color="255,230,230" fill="1" layer="-1.00" shape="630.68,1393.82 625.52,1397.72 635.95,1411.40 641.11,1407.50 630.68,1393.82"/>
    <poly id="204435320" type="building" color="255,230,230" fill="1" layer="-1.00" shape="625.52,1397.72 620.37,1401.62 630.79,1415.29 635.95,1411.40 625.52,1397.72"/>
    <poly id="204435321" type="building" color="255,230,230" fill="1" layer="-1.00" shape="620.37,1401.62 615.21,1405.52 625.63,1419.19 630.79,1415.29 620.37,1401.62"/>
    <poly id="204435322" type="building" color="255,230,230" fill="1" layer="-1.00" shape="615.21,1405.52 610.06,1409.42 620.34,1423.20 625.63,1419.19 615.21,1405.52"/>
    <poly id="204435323" type="amenity" color="237,199,199" fill="1" layer="-1.00" shape="603.59,1414.30 618.31,1434.03 624.83,1429.19 620.34,1423.20 610.06,1409.42 603.59,1414.30"/>
    <poly id="204435323#1" type="building" color="255,230,230" fill="1" layer="-1.00" shape="603.59,1414.30 618.31,1434.03 624.83,1429.19 620.34,1423.20 610.06,1409.42 603.59,1414.30"/>
    <poly id="204468932" type="amenity" color="237,199,199" fill="1" layer="-1.00" shape="661.00,1228.24 665.96,1224.54 677.09,1239.33 683.73,1234.37 684.28,1235.10 688.29,1232.09 685.64,1228.57 684.93,1229.11 674.13,1214.76 666.83,1220.20 663.45,1215.69 655.84,1221.34 661.00,1228.24"/>
    <poly id="204468932#1" type="building" color="255,230,230" fill="1" layer="-1.00" shape="661.00,1228.24 665.96,1224.54 677.09,1239.33 683.73,1234.37 684.28,1235.10 688.29,1232.09 685.64,1228.57 684.93,1229.11 674.13,1214.76 666.83,1220.20 663.45,1215.69 655.84,1221.34 661.00,1228.24"/>
    <poly id="204468933" type="building" color="255,230,230" fill="1" layer="-1.00" shape="665.71,1178.39 670.56,1184.74 681.77,1176.24 677.04,1169.80 665.71,1178.39"/>
    <poly id="204468934" type="building" color="255,230,230" fill="1" layer="-1.00" shape="656.04,1257.96 661.71,1253.73 651.02,1239.53 644.30,1230.60 638.63,1234.83 656.04,1257.96"/>
    <poly id="204468935" type="building" color="255,230,230" fill="1" layer="-1.00" shape="661.71,1253.73 666.55,1250.12 655.86,1235.91 651.02,1239.53 661.71,1253.73"/>
    <poly id="204468936" type="building" color="255,230,230" fill="1" layer="-1.00" shape="691.86,1214.05 695.48,1218.79 706.81,1210.20 703.26,1205.41 691.86,1214.05"/>
    <poly id="204468937" type="building" color="255,230,230" fill="1" layer="-1.00" shape="670.56,1184.74 674.93,1190.48 686.05,1182.05 681.77,1176.24 670.56,1184.74"/>
    <poly id="204468938" type="building" color="255,230,230" fill="1" layer="-1.00" shape="672.40,1245.74 678.05,1241.52 669.41,1230.05 663.77,1234.27 672.40,1245.74"/>
    <poly id="204468939" type="building" color="255,230,230" fill="1" layer="-1.00" shape="686.05,1182.05 674.93,1190.48 668.81,1195.12 673.55,1201.34 679.01,1197.21 690.72,1188.33 686.05,1182.05"/>
    <poly id="204468940" type="building" color="255,230,230" fill="1" layer="-1.00" shape="706.81,1210.20 695.48,1218.79 688.72,1223.91 693.16,1229.73 711.14,1216.10 706.81,1210.20"/>
    <poly id="204468941" type="building" color="255,230,230" fill="1" layer="-1.00" shape="666.55,1250.12 672.40,1245.74 663.77,1234.27 661.71,1231.55 655.86,1235.91 666.55,1250.12"/>
    <poly id="204468942" type="building" color="255,230,230" fill="1" layer="-1.00" shape="703.26,1205.41 700.12,1201.14 688.64,1209.84 691.86,1214.05 703.26,1205.41"/>
    <poly id="204468944" type="building" color="255,230,230" fill="1" layer="-1.00" shape="644.58,1266.54 650.43,1262.16 641.16,1249.84 638.94,1251.49 637.02,1248.95 633.38,1251.67 636.67,1256.04 644.58,1266.54"/>
    <poly id="204468945" type="building" color="255,230,230" fill="1" layer="-1.00" shape="639.64,1270.23 644.58,1266.54 636.67,1256.04 631.74,1259.73 632.17,1260.30 639.64,1270.23"/>
    <poly id="204468946" type="building" color="255,230,230" fill="1" layer="-1.00" shape="634.57,1274.01 639.64,1270.23 632.17,1260.30 627.10,1264.09 627.99,1265.26 634.57,1274.01"/>
    <poly id="204468947" type="building" color="255,230,230" fill="1" layer="-1.00" shape="628.97,1278.19 634.57,1274.01 627.99,1265.26 622.38,1269.44 628.97,1278.19"/>
    <poly id="204468948" type="building" color="255,230,230" fill="1" layer="-1.00" shape="624.80,1281.31 628.97,1278.19 622.38,1269.44 618.86,1264.77 614.69,1267.89 624.80,1281.31"/>
    <poly id="204468949" type="building" color="255,230,230" fill="1" layer="-1.00" shape="621.00,1284.15 624.80,1281.31 614.69,1267.89 610.89,1270.72 621.00,1284.15"/>
    <poly id="204468950" type="building" color="255,230,230" fill="1" layer="-1.00" shape="606.63,1273.91 616.73,1287.34 621.00,1284.15 610.89,1270.72 606.63,1273.91"/>
    <poly id="204468951" type="building" color="255,230,230" fill="1" layer="-1.00" shape="612.43,1290.56 616.73,1287.34 606.63,1273.91 602.32,1277.13 612.43,1290.56"/>
    <poly id="204468952" type="building" color="255,230,230" fill="1" layer="-1.00" shape="608.13,1293.77 612.43,1290.56 602.32,1277.13 598.02,1280.34 608.13,1293.77"/>
    <poly id="204468953" type="building" color="255,230,230" fill="1" layer="-1.00" shape="603.83,1296.98 608.13,1293.77 598.02,1280.34 593.72,1283.55 603.83,1296.98"/>
    <poly id="204468954" type="building" color="255,230,230" fill="1" layer="-1.00" shape="599.53,1300.20 603.83,1296.98 593.72,1283.55 589.42,1286.77 599.53,1300.20"/>
    <poly id="204468955" type="building" color="255,230,230" fill="1" layer="-1.00" shape="594.66,1303.82 599.53,1300.20 589.42,1286.77 584.55,1290.40 594.66,1303.82"/>
    <poly id="204468956" type="building" color="255,230,230" fill="1" layer="-1.00" shape="590.40,1307.02 594.66,1303.82 584.55,1290.40 580.29,1293.59 590.40,1307.02"/>
    <poly id="204468957" type="building" color="255,230,230" fill="1" layer="-1.00" shape="586.27,1310.10 590.40,1307.02 580.29,1293.59 576.16,1296.68 586.27,1310.10"/>
    <poly id="204468958" type="building" color="255,230,230" fill="1" layer="-1.00" shape="654.31,1187.02 658.90,1193.02 667.92,1186.19 663.33,1180.19 654.31,1187.02"/>
    <poly id="204468959" type="building" color="255,230,230" fill="1" layer="-1.00" shape="582.34,1313.04 586.27,1310.10 576.16,1296.68 572.24,1299.61 582.34,1313.04"/>
    <poly id="204468960" type="building" color="255,230,230" fill="1" layer="-1.00" shape="649.71,1190.51 658.58,1202.12 663.19,1198.64 658.90,1193.02 654.31,1187.02 649.71,1190.51"/>
    <poly id="204468961" type="building" color="255,230,230" fill="1" layer="-1.00" shape="578.05,1316.24 582.34,1313.04 572.24,1299.61 567.94,1302.81 578.05,1316.24"/>
    <poly id="204468962" type="building" color="255,230,230" fill="1" layer="-1.00" shape="645.15,1193.97 653.19,1204.51 654.01,1205.59 658.58,1202.12 649.71,1190.51 645.15,1193.97"/>
    <poly id="204468963" type="building" color="255,230,230" fill="1" layer="-1.00" shape="574.20,1319.12 578.05,1316.24 567.94,1302.81 564.10,1305.69 574.20,1319.12"/>
    <poly id="204468964" type="building" color="255,230,230" fill="1" layer="-1.00" shape="645.15,1193.97 640.91,1197.18 648.95,1207.72 653.19,1204.51 645.15,1193.97"/>
    <poly id="204468965" type="building" color="255,230,230" fill="1" layer="-1.00" shape="569.83,1322.39 574.20,1319.12 564.10,1305.69 559.72,1308.96 560.98,1310.63 569.83,1322.39"/>
    <poly id="204468966" type="building" color="255,230,230" fill="1" layer="-1.00" shape="640.91,1197.18 636.67,1200.39 644.72,1210.93 648.95,1207.72 640.91,1197.18"/>
    <poly id="204468968" type="building" color="255,230,230" fill="1" layer="-1.00" shape="556.32,1314.10 565.17,1325.86 569.83,1322.39 560.98,1310.63 556.32,1314.10"/>
    <poly id="204468970" type="building" color="255,230,230" fill="1" layer="-1.00" shape="636.67,1200.39 632.44,1203.59 642.62,1216.93 643.50,1218.08 646.55,1215.76 643.54,1211.82 644.72,1210.93 636.67,1200.39"/>
    <poly id="204468972" type="building" color="255,230,230" fill="1" layer="-1.00" shape="560.56,1329.31 565.17,1325.86 556.32,1314.10 551.72,1317.56 551.88,1317.78 560.56,1329.31"/>
    <poly id="204468975" type="building" color="255,230,230" fill="1" layer="-1.00" shape="626.99,1207.72 634.70,1217.83 637.17,1221.06 642.62,1216.93 632.44,1203.59 626.99,1207.72"/>
    <poly id="204468978" type="building" color="255,230,230" fill="1" layer="-1.00" shape="621.61,1211.81 629.32,1221.91 634.70,1217.83 626.99,1207.72 621.61,1211.81"/>
    <poly id="204468980" type="building" color="255,230,230" fill="1" layer="-1.00" shape="616.64,1215.58 622.20,1222.87 625.26,1226.88 630.23,1223.11 629.32,1221.91 621.61,1211.81 616.64,1215.58"/>
    <poly id="204468982" type="building" color="255,230,230" fill="1" layer="-1.00" shape="611.71,1219.31 617.29,1226.60 620.36,1230.62 625.28,1226.89 622.20,1222.87 616.64,1215.58 611.71,1219.31"/>
    <poly id="204468985" type="building" color="255,230,230" fill="1" layer="-1.00" shape="611.71,1219.31 606.23,1223.46 611.81,1230.76 615.11,1235.10 617.61,1233.21 614.29,1228.86 617.29,1226.60 611.71,1219.31"/>
    <poly id="204468988" type="building" color="255,230,230" fill="1" layer="-1.00" shape="606.23,1223.46 600.75,1227.61 606.33,1234.91 611.81,1230.76 606.23,1223.46"/>
    <poly id="204468993" type="building" color="255,230,230" fill="1" layer="-1.00" shape="595.46,1231.62 602.64,1241.02 607.94,1237.01 606.33,1234.91 600.75,1227.61 595.46,1231.62"/>
    <poly id="204468996" type="building" color="255,230,230" fill="1" layer="-1.00" shape="595.46,1231.62 590.20,1235.61 597.82,1245.59 603.09,1241.61 602.64,1241.02 595.46,1231.62"/>
    <poly id="204468999" type="building" color="255,230,230" fill="1" layer="-1.00" shape="590.20,1235.61 584.93,1239.60 592.56,1249.58 597.82,1245.59 590.20,1235.61"/>
    <poly id="204469001" type="building" color="255,230,230" fill="1" layer="-1.00" shape="584.93,1239.60 579.68,1243.57 587.30,1253.57 592.56,1249.58 584.93,1239.60"/>
    <poly id="204469004" type="building" color="255,230,230" fill="1" layer="-1.00" shape="574.36,1247.62 581.29,1256.70 581.98,1257.60 587.30,1253.57 579.68,1243.57 574.36,1247.62"/>
    <poly id="204469007" type="building" color="255,230,230" fill="1" layer="-1.00" shape="569.19,1251.53 576.13,1260.62 581.29,1256.70 574.36,1247.62 569.19,1251.53"/>
    <poly id="204469008" type="building" color="255,230,230" fill="1" layer="-1.00" shape="563.55,1255.80 570.97,1265.52 576.61,1261.24 576.13,1260.62 569.19,1251.53 563.55,1255.80"/>
    <poly id="204469014" type="building" color="255,230,230" fill="1" layer="-1.00" shape="700.12,1201.14 696.98,1196.87 685.43,1205.62 688.64,1209.84 700.12,1201.14"/>
    <poly id="204469016" type="building" color="255,230,230" fill="1" layer="-1.00" shape="557.94,1260.05 564.35,1268.43 566.33,1271.05 571.94,1266.80 570.97,1265.52 563.55,1255.80 557.94,1260.05"/>
    <poly id="204469019" type="building" color="255,230,230" fill="1" layer="-1.00" shape="552.03,1264.53 558.43,1272.91 564.35,1268.43 557.94,1260.05 552.03,1264.53"/>
    <poly id="204469022" type="building" color="255,230,230" fill="1" layer="-1.00" shape="546.97,1268.36 552.90,1276.15 556.24,1280.52 561.31,1276.68 558.43,1272.91 552.03,1264.53 546.97,1268.36"/>
    <poly id="204469025" type="building" color="255,230,230" fill="1" layer="-1.00" shape="541.78,1272.30 547.71,1280.07 552.90,1276.15 546.97,1268.36 541.78,1272.30"/>