<?xml version="1.0" encoding="UTF-8"?>

<!-- generated on Thu Sep 28 00:00:46 2017 by SUMO duarouter Version 0.30.0
<?xml version="1.0" encoding="UTF-8"?>

<configuration >

    <input>
        <net-file value="smallmap.net.xml"/>
        <trip-files value="trips.trips.xml"/>
    </input>

    <output>
        <output-file value="smallmap.rou.xml"/>
    </output>

    <processing>
        <ignore-errors value="true"/>
    </processing>

    <time>
        <begin value="0"/>
        <end value="50.0"/>
    </time>

    <report>
        <no-warnings value="true"/>
        <no-step-log value="true"/>
    </report>

</configuration>
-->

<routes>
    <vehicle id="0" depart="0.00">
        <route edges="-5587241#1 5569091 5585560#0 5585560#1 5585560#2 5585560#3 5585560#4 5585560#5 5585560#6 37389432#0 37389432#1 37389432#2 -5587868#4 -5587868#3 -5587868#2 -5587868#1 -5587868#0 36747108#2 5573939"/>
    </vehicle>
    <vehicle id="1" depart="1.00">
        <route edges="43763490#5 -43763490#5 -43763490#4 33904606#0 33904606#1 33904606#2 33904606#3 37389434 5580169#1 5580169#2 5580169#3 392481477 -35926590#3 -35926590#2 -35926590#1 -35926590#0 -44507216 35926591#0 35926591#1 5587241#0 5587241#1 5587241#2 5587241#3 5587241#4 5587241#5 5587241#6 516224391#0 516224391#1 516224391#2 516224391#3 516224391#4 516224391#5 106201552#0 106201552#1 106201552#2 106201552#3 5570462#1"/>
    </vehicle>
    <vehicle id="3" depart="3.00">
        <route edges="5586625#0 106201552#12 5585456 35600045#3 35600045#4 35600045#5 35600045#6 35600045#7 35600045#8 35600045#9 516224378#0 516224378#1 516224378#2 516224378#3 5576708 5588383#0 5588383#1 5588383#2 5588383#3"/>
    </vehicle>
    <vehicle id="4" depart="4.00">
        <route edges="-32835777#8 -32835777#7 -32835777#6 -5585560#11 -5585560#10 -5585560#9 -5585560#8 -5585560#7 -5585560#6 -5585560#5 -5585560#4 -5585560#3 -5585560#2 -5585560#1 -5585560#0 25533416#0 25533416#1 38208897#0 38208897#1 38208897#2 38208897#3 38208897#4 38208897#5"/>
    </vehicle>
    <vehicle id="5" depart="5.00">
        <route edges="-173689701#1 173689701#1 173689701#2 173689701#3 173689701#4 173689701#5 173689701#6 173689701#7 173689701#8 -43763489#3 -43763489#2 -43763489#1 5585560#8 5585560#9 5585560#10 5585560#11 -32835777#5 -32835777#4 -32835777#3 -32835777#2 -32835777#1 -32835777#0 33904607#0 33904607#1 33904607#2"/>
    </vehicle>
    <vehicle id="6" depart="6.00">
        <route edges="5588383#3 106201552#7 5580331#1 25014532 35599360 25014534#0 25014534#1 89965053#0 89965053#1 5591175#8 5591175#9 5591175#10 5591175#11 5591175#12 5591175#13 5591175#14 5591175#15 5591160#0 5591160#1 -44507216 35926591#0 35926591#1 5569097 5585560#0 5585560#1 5585560#2 5585560#3 5585560#4 5585560#5 5585560#6 37389432#0 37389432#1 37389432#2 5587806 43763489#3 43763489#4 43763489#5 43763489#6 -35970302#2 -35970302#1 -35970302#0 35970303#0 35970303#1 35970303#2 35970303#3 -35970303#3"/>
    </vehicle>
    <vehicle id="7" depart="7.00">
        <route edges="-319337750#1 319337750#1 5579124#0 5579124#1 32835777#0 32835777#1 32835777#2 32835777#3 32835777#4 32835777#5 -5585560#11 -5585560#10 -5585560#9 -5585560#8 -5585560#7 -5585560#6 -5585560#5 -5585560#4 -5585560#3 -5585560#2 -5585560#1 -5585560#0 -5569091 5587241#1 5587241#2 5587241#3 5587241#4 5587241#5 5587241#6 516224391#0 516224391#1 516224391#2 516224391#3 516224391#4 516224391#5 106201552#0 106201552#1 5589899#0 5589899#1"/>
    </vehicle>
    <vehicle id="8" depart="8.00">
        <route edges="-5594634#0 -44092707#2 -44092707#1 -44092707#0 -36747108#2 -36747108#1 -36747108#0 35970302#0 35970302#1 35970302#2 -43763489#6 -43763489#5 -43763489#4 -43763489#3 -43763489#2 -43763489#1 -5585560#7 -5585560#6 -5585560#5 -5585560#4 -259981942#6 -259981942#5 -259981942#4 -259981942#3 -259981942#2 -259981942#1 -259981942#0 33904608#2 43763490#0 43763490#1 43763490#2 43763490#3 43763490#4 43763490#5 43763490#6 5569143#0 5569143#1 5564272 82246911 82246909"/>
    </vehicle>
    <vehicle id="10" depart="10.00">
        <route edges="-261122620#0 5580169#1 5580169#2 5580169#3 392481477 -35926590#3 -35926590#2 -35926590#1 -35926590#0 -44507216 35926591#0 35926591#1 5587241#0 5587241#1 5587241#2 5587241#3 5587241#4 5587241#5 5587241#6 516224391#0 516224391#1 516224391#2 516224391#3 516224391#4 516224391#5 516224391#6 516224391#7"/>
    </vehicle>
    <vehicle id="11" depart="11.00">
        <route edges="5570462#0 5570462#1 89965053#0 89965053#1 5591175#8 5591175#9 5591175#10 5591175#11 5591175#12 5591175#13 5591175#14 5591175#15 5591160#0 5591160#1 -44507216 35926591#0 35926591#1 5569097 5585560#0 5585560#1 5585560#2 5585560#3 5585560#4 5585560#5 5585560#6 5585560#7 5585560#8 5585560#9 5585560#10 5585560#11 -32835777#5 -32835777#4 -32835777#3 -32835777#2"/>
    </vehicle>
    <vehicle id="12" depart="12.00">
        <route edges="-43763489#2 43763489#2 43763489#3 -173689701#8 -173689701#7 -173689701#6 173689701#6"/>
    </vehicle>
    <vehicle id="13" depart="13.00">
        <route edges="5582560#1 -5594634#0 -44092707#2 -44092707#1 -44092707#0 -36747108#2 5587868#0 5587868#1 5587868#2 5587868#3 5587868#4 45829587#0 45829587#1 -25533416#3 -25533416#2 -25533416#1 -25533416#0 -5569091 -5587241#0 -35926591#1 -35926591#0 44507216 35926590#0 35926590#1 35926590#2 35926590#3 35926590#4 88968224#0 -88968224#0"/>
    </vehicle>
    <vehicle id="14" depart="14.00">
        <route edges="516224378#1 516224378#2 516224378#3 25014532 35599360 25014534#0 25014534#1 89965053#0 89965053#1 5591175#8 5591175#9 5591175#10 5591175#11 5591175#12 5591175#13 5591175#14 5591175#15 5591160#0 5591160#1 -44507216 35926591#0 35926591#1 5569097 5585560#0 5585560#1 5585560#2 5585560#3 5585560#4 5585560#5 5585560#6 5585560#7 43763489#1 43763489#2"/>
    </vehicle>
    <vehicle id="15" depart="15.00">
        <route edges="-44092707#4 -44092707#3 -44092707#2 -44092707#1 -44092707#0 -36747108#2 -36747108#1 -36747108#0 35970302#0 35970302#1 35970302#2 -43763489#6 -43763489#5 -43763489#4 -43763489#3 -43763489#2 -43763489#1 -5585560#7 -5585560#6 -5585560#5 -5585560#4 -259981942#6 -259981942#5 -259981942#4 -259981942#3 -259981942#2 -259981942#1 -259981942#0 33904608#2 43763490#0 43763490#1 43763490#2 43763490#3 43763490#4 43763490#5 43763490#6 5569143#0 5569143#1 5564272 82246911 82246909 38268435 102588905 102588917 9760478 38268436 102588914 102588906#0 102588906#1 9756888 82246907 5566276#0"/>
    </vehicle>
    <vehicle id="16" depart="16.00">
        <route edges="5591175#16 5591175#17 -35926590#1 -35926590#0 -44507216 35926591#0 35926591#1 5587241#0 5587241#1 5587241#2 5587241#3 5587241#4 5587241#5 5587241#6 516224391#0 516224391#1 516224391#2 516224391#3 516224391#4 516224391#5 106201552#0 106201552#1 106201552#2 106201552#3 106201552#4 106201552#5 106201552#6 106201552#7 106201552#8 106201552#9 -516224383#0"/>
    </vehicle>
    <vehicle id="17" depart="17.00">
        <route edges="-5587802#1 -5587802#0 -25533416#4 -25533416#3 -25533416#2 -25533416#1 25533416#1"/>
    </vehicle>
    <vehicle id="18" depart="18.00">
        <route edges="-5585826#1 -5585826#0 -5587241#3 -5587241#2 -5587241#1 5569091 5585560#0 5585560#1 5585560#2 5585560#3 5585560#4 5585560#5 5585560#6 37389432#0 37389432#1 37389432#2 -5587868#4 -5587868#3 -5587868#2 -5587868#1 -5587868#0 36747108#2 5573939"/>
    </vehicle>
    <vehicle id="19" depart="19.00">
        <route edges="-5587868#3 5587868#3 5587868#4 45829587#0 45829587#1 -25533416#3 -25533416#2 -25533416#1 -25533416#0 -5569091 -5587241#0 -35926591#1 -35926591#0 44507216 35926590#0 35926590#1 35926590#2 35926590#3 35926590#4 5582078#0 5582078#1 5569007"/>
    </vehicle>
    <vehicle id="20" depart="20.00">
        <route edges="5580169#2 -5580169#2 -5580169#1 261122620#0 261122620#1 259981942#0 259981942#1 259981942#2 259981942#3 259981942#4 259981942#5 259981942#6 5585560#4 5585560#5 5585560#6 37389432#0 37389432#1 37389432#2 -5587868#4 -5587868#3 -5587868#2 -5587868#1 -5587868#0 36747108#2 44092707#0 44092707#1 44092707#2 44092707#3 -44092707#3"/>
    </vehicle>
    <vehicle id="21" depart="21.00">
        <route edges="-5573939 -36747108#2 -36747108#1 -36747108#0 35970302#0 35970302#1 35970302#2 -43763489#6 -43763489#5 -43763489#4 -43763489#3 45829588#0 45829588#1 -45829588#1"/>
    </vehicle>
    <vehicle id="22" depart="22.00">
        <route edges="-319487943#2 5591175#5 5591175#6 5591175#7 5591175#8 5591175#9 5591175#10 5591175#11 5591175#12 5591175#13 5591175#14 5591175#15 5591175#16 5591175#17 35926590#2 35926590#3 35926590#4 88968224#0 88968224#1 88968224#2 88968224#3 88968224#4 -88968224#4"/>
    </vehicle>
    <vehicle id="23" depart="23.00">
        <route edges="-5573939 -36747108#2 5587868#0 5587868#1 5587868#2 5587868#3 5587868#4 45829587#0 45829587#1 -25533416#3 -25533416#2 -25533416#1 -25533416#0 -5569091 5587241#1 5587241#2 5587241#3 5587241#4 5587241#5 5587241#6 516224391#0 516224391#1 516224391#2 516224391#3 516224391#4 516224391#5 106201552#0 106201552#1"/>
    </vehicle>
    <vehicle id="24" depart="24.00">
        <route edges="392481477 -35926590#3 -35926590#2 -35926590#1 -35926590#0 -44507216 35926591#0 35926591#1 5569097 25533416#0 25533416#1 25533416#2 25533416#3 25533416#4 5587802#0 5587802#1"/>
    </vehicle>
    <vehicle id="25" depart="25.00">
        <route edges="173689701#4 173689701#5 173689701#6 5587868#4 45829587#0 45829587#1 -25533416#3 -25533416#2 -25533416#1 -25533416#0 -5569091 5587241#1 5587241#2 5587241#3 5587241#4 5587241#5 5587241#6 516224391#0 516224391#1 516224391#2 516224391#3 516224391#4 516224391#5 106201552#0 106201552#1 106201552#2 106201552#3 106201552#4 106201552#5 106201552#6 106201552#7 106201552#8 106201552#9 -516224383#0 -516224372#5 -516224372#4 -516224372#3 -516224372#2 -516224372#1 516224372#1"/>
    </vehicle>
    <vehicle id="26" depart="26.00">
        <route edges="45829588#1 -45829588#1 -45829588#0 43763489#3 43763489#4 43763489#5 43763489#6 -35970302#2 -35970302#1 -35970302#0 5591740#0 5591740#1 5591740#2 194772224#0 194772224#1"/>
    </vehicle>
    <vehicle id="27" depart="27.00">
        <route edges="35926400#2 35926400#3 35926591#0 35926591#1 5569097 5585560#0 5585560#1 5585560#2 5585560#3 5585560#4 5585560#5 5585560#6 37389432#0 37389432#1 37389432#2 5587806 43763489#3 43763489#4 43763489#5 43763489#6 -35970302#2 -35970302#1 -35970302#0 35970303#0 35970303#1 35970303#2 -35970303#2"/>
    </vehicle>
    <vehicle id="28" depart="28.00">
        <route edges="35970303#0 -35970303#0 35970302#0 35970302#1 35970302#2 -43763489#6 -43763489#5 -43763489#4 -43763489#3 -43763489#2 -43763489#1 -5585560#7 -5585560#6 -5585560#5 -5585560#4 -5585560#3 -5585560#2 -5585560#1 -5585560#0 -5569091 5587241#1 5587241#2 5587241#3 5587241#4 5587241#5 5587241#6 516224391#0 516224391#1 516224391#2 516224391#3 516224391#4 516224391#5 106201552#0 106201552#1 106201552#2 106201552#3 106201552#4 106201552#5 106201552#6 5588383#4"/>
    </vehicle>
    <vehicle id="29" depart="29.00">
        <route edges="516224372#2 516224372#3 516224372#4 516224372#5 516224378#0 516224378#1 516224378#2 516224378#3 5576708 5588383#0 5588383#1 5588383#2 5588383#3 5588383#4 -319487943#5 5573928#0 5573928#1"/>
    </vehicle>
    <vehicle id="30" depart="30.00">
        <route edges="44706379#3 44706379#4 5582560#0 -44092707#3 -44092707#2 -44092707#1 -44092707#0 5573939"/>
    </vehicle>
    <vehicle id="31" depart="31.00">
        <route edges="-5573939 -36747108#2 -36747108#1 -36747108#0 35970303#0 35970303#1"/>
    </vehicle>
    <vehicle id="32" depart="32.00">
        <route edges="5571352#0 5571352#1 35600045#8 35600045#9 516224378#0 516224378#1 516224378#2 516224378#3 25014532 35599360 25014534#0 25014534#1 89965053#0 89965053#1 38208898#0 38208898#1 38208898#2 38208898#3 38208898#4 38208898#5 38208898#6 38208898#7 -5587241#6 -5587241#5 -5587241#4 5585826#0 5585826#1 38208897#5"/>
    </vehicle>
    <vehicle id="33" depart="33.00">
        <route edges="-5587802#1 -5587802#0 -25533416#4 -25533416#3 -25533416#2 -25533416#1 -25533416#0 5585560#0 5585560#1 5585560#2 5585560#3 5585560#4 5585560#5 5585560#6 37389432#0 37389432#1 37389432#2 -5587868#4 -173689701#6 -173689701#5 5590547"/>
    </vehicle>
    <vehicle id="34" depart="34.00">
        <route edges="5591175#3 5591175#4 -319487943#1 -319487943#0 -516224391#7 -516224391#6 -516224391#5 -516224391#4 -516224391#3 -516224391#2 -516224391#1 -516224391#0 -5587241#6 -5587241#5 -5587241#4 -5587241#3 -5587241#2 -5587241#1 5569091 5585560#0 5585560#1 5585560#2 5585560#3 5585560#4 5585560#5 5585560#6 37389432#0 37389432#1 37389432#2 5587806 43763489#3 43763489#4 43763489#5 43763489#6 -35970302#2 -35970302#1 -35970302#0 35970303#0 35970303#1 35970303#2 35970303#3"/>
    </vehicle>
    <vehicle id="35" depart="35.00">
        <route edges="88968224#1 -88968224#1 -88968224#0 -35926590#4 -35926590#3 -35926590#2 -35926590#1 -35926590#0 -44507216 35926591#0 35926591#1 5569097 5585560#0 5585560#1 5585560#2 5585560#3 5585560#4 5585560#5 5585560#6 37389432#0 37389432#1 37389432#2 -5587868#4 -5587868#3 -5587868#2 -5587868#1 -5587868#0 36747108#2 44092707#0 44092707#1 44092707#2 5594634#0 -5582560#1"/>
    </vehicle>
    <vehicle id="36" depart="36.00">
        <route edges="88968224#4 -88968224#4 -88968224#3 -88968224#2 -88968224#1 -88968224#0 -35926590#4 -35926590#3 -35926590#2 -35926590#1 -35926590#0 -44507216 35926591#0 35926591#1 5587241#0 5587241#1 5587241#2 5587241#3 5587241#4 5587241#5 5587241#6 516224391#0 516224391#1 516224391#2 516224391#3 516224391#4 516224391#5 106201552#0 106201552#1 106201552#2 106201552#3 106201552#4 106201552#5 106201552#6 106201552#7 5580331#1 25014532 35599360 25014534#0 25014534#1"/>
    </vehicle>
    <vehicle id="39" depart="39.00">
        <route edges="5575361#0 5575361#1 -516224391#5 -516224391#4 -516224391#3 -516224391#2 -516224391#1 -516224391#0 -5587241#6 -5587241#5 -5587241#4 -5587241#3 -5587241#2 -5587241#1 -5587241#0 -35926591#1 -35926591#0 44507216 35926590#0 35926590#1 35926590#2 35926590#3"/>
    </vehicle>
    <vehicle id="40" depart="40.00">
        <route edges="5569007 5591175#15 5591175#16 5591175#17 35926590#2 35926590#3 -392481477 -5580169#3 -5580169#2 -5580169#1 -37389434 -33904606#3 -33904606#2 -33904606#1 -33904606#0 43763490#4 43763490#5 43763490#6 5569143#0 5569143#1 5564272 82246911 82246909"/>
    </vehicle>
    <vehicle id="41" depart="41.00">
        <route edges="516224383#0 -516224383#0 516224378#0 516224378#1 516224378#2 516224378#3 25014532 35599360 25014534#0 25014534#1 89965053#0 89965053#1 38208898#0 38208898#1 38208898#2 38208898#3 38208898#4 38208898#5 38208898#6 38208898#7 516224397#0 516224397#1 516224397#2"/>
    </vehicle>
    <vehicle id="42" depart="42.00">
        <route edges="88968224#1 -88968224#1 -88968224#0 -35926590#4 -35926590#3 -35926590#2 -35926590#1 -35926590#0 -44507216 35926591#0 35926591#1 5569097 5585560#0 5585560#1 5585560#2 5585560#3 5585560#4 5585560#5 5585560#6 37389432#0 37389432#1 37389432#2 -5587868#4 -5587868#3 5573455"/>
    </vehicle>
    <vehicle id="43" depart="43.00">
        <route edges="-392481477 -5580169#3 -5580169#2 -5580169#1 261122620#0 261122620#1 259981942#0 259981942#1 259981942#2 259981942#3 259981942#4 259981942#5 259981942#6 5585560#4 5585560#5 5585560#6 37389432#0 37389432#1 37389432#2 -5587868#4 -5587868#3 -5587868#2 -5587868#1 -5587868#0 36747108#2 44092707#0 44092707#1 44092707#2 44092707#3 44092707#4"/>
    </vehicle>
    <vehicle id="44" depart="44.00">
        <route edges="-5585826#1 -5585826#0 -5587241#3 -5587241#2 -5587241#1 -5587241#0 -35926591#1 -35926591#0 44507216 33904608#0 33904608#1 259981942#0 35926400#2"/>
    </vehicle>
    <vehicle id="45" depart="45.00">
        <route edges="-44092707#4 -44092707#3 -44092707#2 -44092707#1 -44092707#0 -36747108#2 5587868#0 5587868#1 5587868#2 5587868#3 5587868#4 45829587#0 45829587#1 -25533416#3 -25533416#2 -25533416#1 -25533416#0 -5569091 -5587241#0 5569097"/>
    </vehicle>
    <vehicle id="46" depart="46.00">
        <route edges="-5587241#5 -5587241#4 -5587241#3 -5587241#2 -5587241#1 5569091 5585560#0 5585560#1 5585560#2 5585560#3 5585560#4 5585560#5 5585560#6 37389432#0 37389432#1 37389432#2 -5587868#4 -5587868#3 -5587868#2 -5587868#1 44706379#0 44706379#1 44706379#2 44706379#3 44706379#4 44706379#5"/>
    </vehicle>
    <vehicle id="47" depart="47.00">
        <route edges="5580331#0 106201552#8 106201552#9 106201552#10 106201552#11 5586625#1"/>
    </vehicle>
    <vehicle id="48" depart="48.00">
        <route edges="-5582560#2 -5594634#0 -44092707#2 -44092707#1 -44092707#0 -36747108#2 5587868#0 5587868#1 5587868#2 5587868#3 5587868#4 45829587#0 45829587#1 -25533416#3 -25533416#2 -25533416#1 -25533416#0 -5569091 5587241#1 5587241#2 5587241#3 5587241#4 5587241#5 5587241#6 516224391#0 516224391#1 516224391#2 516224391#3 516224391#4 516224391#5 106201552#0 106201552#1 5589899#0 319487943#1 319487943#2 319487943#3 319487943#4 5573928#0"/>
    </vehicle>
    <vehicle id="49" depart="49.00">
        <route edges="5580331#0 5580331#1 25014532 35599360 25014534#0 25014534#1 89965053#0 89965053#1 5591175#8 5591175#9 5591175#10 5591175#11 5591175#12 5591175#13 5591175#14 5591175#15 5591160#0 5591160#1 33904608#0 33904608#1 259981942#0 35926400#2"/>
    </vehicle>
</routes>
