<?xml version="1.0" encoding="UTF-8"?>

<!-- generated on Wed Sep 27 23:56:43 2017 by SUMO netconvert Version 0.30.0
<?xml version="1.0" encoding="UTF-8"?>

<configuration xmlns:xsi="http://www.w3.org/2001/XMLSchema-instance" xsi:noNamespaceSchemaLocation="http://sumo.dlr.de/xsd/netconvertConfiguration.xsd">

    <input>
        <osm-files value="smallmap.osm"/>
    </input>

    <output>
        <output-file value="smallmap.net.xml"/>
        <output.street-names value="true"/>
    </output>

    <projection>
        <proj.utm value="true"/>
    </projection>

</configuration>
-->

<net version="0.27" xmlns:xsi="http://www.w3.org/2001/XMLSchema-instance" xsi:noNamespaceSchemaLocation="http://sumo.dlr.de/xsd/net_file.xsd">

    <location netOffset="-600696.32,-4721927.09" convBoundary="0.00,0.00,1981.00,2252.60" origBoundary="-73.771350,42.643117,-73.747388,42.663457" projParameter="+proj=utm +zone=18 +ellps=WGS84 +datum=WGS84 +units=m +no_defs"/>

    <type id="highway.bridleway" priority="1" numLanes="1" speed="2.78" allow="pedestrian" oneway="1" width="2.00"/>
    <type id="highway.bus_guideway" priority="1" numLanes="1" speed="8.33" allow="bus" oneway="1"/>
    <type id="highway.cycleway" priority="1" numLanes="1" speed="5.56" allow="bicycle" oneway="0" width="1.00"/>
    <type id="highway.footway" priority="1" numLanes="1" speed="2.78" allow="pedestrian" oneway="1" width="2.00"/>
    <type id="highway.ford" priority="1" numLanes="1" speed="2.78" allow="army" oneway="0"/>
    <type id="highway.living_street" priority="3" numLanes="1" speed="2.78" disallow="tram rail_urban rail rail_electric ship" oneway="0"/>
    <type id="highway.motorway" priority="13" numLanes="2" speed="44.44" allow="private emergency authority army vip passenger hov taxi bus coach delivery truck trailer motorcycle evehicle custom1 custom2" oneway="1"/>
    <type id="highway.motorway_link" priority="12" numLanes="1" speed="22.22" allow="private emergency authority army vip passenger hov taxi bus coach delivery truck trailer motorcycle evehicle custom1 custom2" oneway="1"/>
    <type id="highway.path" priority="1" numLanes="1" speed="2.78" allow="bicycle pedestrian" oneway="1" width="2.00"/>
    <type id="highway.pedestrian" priority="1" numLanes="1" speed="2.78" allow="pedestrian" oneway="1" width="2.00"/>
    <type id="highway.primary" priority="9" numLanes="2" speed="27.78" disallow="tram rail_urban rail rail_electric ship" oneway="0"/>
    <type id="highway.primary_link" priority="8" numLanes="1" speed="22.22" disallow="tram rail_urban rail rail_electric ship" oneway="0"/>
    <type id="highway.raceway" priority="14" numLanes="2" speed="83.33" allow="vip" oneway="0"/>
    <type id="highway.residential" priority="4" numLanes="1" speed="13.89" disallow="tram rail_urban rail rail_electric ship" oneway="0"/>
    <type id="highway.secondary" priority="7" numLanes="2" speed="27.78" disallow="tram rail_urban rail rail_electric ship" oneway="0"/>
    <type id="highway.secondary_link" priority="6" numLanes="1" speed="22.22" disallow="tram rail_urban rail rail_electric ship" oneway="0"/>
    <type id="highway.service" priority="2" numLanes="1" speed="5.56" allow="delivery bicycle pedestrian" oneway="0"/>
    <type id="highway.services" priority="1" numLanes="1" speed="8.33" disallow="tram rail_urban rail rail_electric ship" oneway="0"/>
    <type id="highway.stairs" priority="1" numLanes="1" speed="1.39" allow="pedestrian" oneway="1" width="2.00"/>
    <type id="highway.step" priority="1" numLanes="1" speed="1.39" allow="pedestrian" oneway="1" width="2.00"/>
    <type id="highway.steps" priority="1" numLanes="1" speed="1.39" allow="pedestrian" oneway="1" width="2.00"/>
    <type id="highway.tertiary" priority="6" numLanes="1" speed="22.22" disallow="tram rail_urban rail rail_electric ship" oneway="0"/>
    <type id="highway.tertiary_link" priority="5" numLanes="1" speed="22.22" disallow="tram rail_urban rail rail_electric ship" oneway="0"/>
    <type id="highway.track" priority="1" numLanes="1" speed="5.56" disallow="tram rail_urban rail rail_electric ship" oneway="0"/>
    <type id="highway.trunk" priority="11" numLanes="2" speed="27.78" disallow="tram rail_urban rail rail_electric bicycle pedestrian ship" oneway="0"/>
    <type id="highway.trunk_link" priority="10" numLanes="1" speed="22.22" disallow="tram rail_urban rail rail_electric bicycle pedestrian ship" oneway="0"/>
    <type id="highway.unclassified" priority="5" numLanes="1" speed="13.89" disallow="tram rail_urban rail rail_electric ship" oneway="0"/>
    <type id="highway.unsurfaced" priority="1" numLanes="1" speed="8.33" disallow="tram rail_urban rail rail_electric ship" oneway="0"/>
    <type id="railway.light_rail" priority="15" numLanes="1" speed="27.78" allow="rail_urban" oneway="1"/>
    <type id="railway.preserved" priority="15" numLanes="1" speed="27.78" allow="rail" oneway="1"/>
    <type id="railway.rail" priority="15" numLanes="1" speed="83.33" allow="rail rail_electric" oneway="1"/>
    <type id="railway.subway" priority="15" numLanes="1" speed="27.78" allow="rail_urban" oneway="1"/>
    <type id="railway.tram" priority="15" numLanes="1" speed="13.89" allow="tram" oneway="1"/>

    <edge id=":1032433810_0" function="internal">
        <lane id=":1032433810_0_0" index="0" allow="delivery bicycle pedestrian" speed="5.56" length="4.82" shape="1303.37,689.91 1301.94,689.48 1301.31,688.81 1301.46,687.90 1302.40,686.75"/>
    </edge>
    <edge id=":1040277404_0" function="internal">
        <lane id=":1040277404_0_0" index="0" disallow="tram rail_urban rail rail_electric bicycle pedestrian ship" speed="9.49" length="14.75" shape="857.14,919.57 852.97,915.83 849.51,913.58 846.76,912.82 844.72,913.56"/>
    </edge>
    <edge id=":1040277404_1" function="internal">
        <lane id=":1040277404_1_0" index="0" allow="delivery bicycle pedestrian" speed="5.56" length="17.59" shape="857.14,919.57 853.27,914.89 852.32,911.45 854.29,909.24 859.18,908.25"/>
    </edge>
    <edge id=":1040277404_2" function="internal">
        <lane id=":1040277404_2_0" index="0" allow="delivery bicycle pedestrian" speed="5.56" length="5.43" shape="857.14,919.57 856.09,918.26 855.92,917.24 856.64,916.49 858.25,916.02"/>
    </edge>
    <edge id=":1040277404_3" function="internal">
        <lane id=":1040277404_3_0" index="0" allow="delivery bicycle pedestrian" speed="5.56" length="7.02" shape="859.21,911.56 857.22,911.95 856.39,912.82 856.74,914.18 858.25,916.02"/>
    </edge>
    <edge id=":1040277404_4" function="internal">
        <lane id=":1040277404_4_0" index="0" disallow="tram rail_urban rail rail_electric bicycle pedestrian ship" speed="9.49" length="17.53" shape="859.21,911.56 855.38,910.83 851.35,909.36 847.08,908.87 842.54,911.08"/>
    </edge>
    <edge id=":1040277404_5" function="internal">
        <lane id=":1040277404_5_0" index="0" allow="delivery bicycle pedestrian" speed="5.56" length="4.82" shape="859.21,911.56 857.96,910.74 857.54,909.92 857.95,909.09 859.18,908.25"/>
    </edge>
    <edge id=":1040277404_6" function="internal">
        <lane id=":1040277404_6_0" index="0" allow="delivery bicycle pedestrian" speed="9.49" length="9.10" shape="855.29,904.63 853.67,906.41 853.78,907.60 855.61,908.22 859.18,908.25"/>
    </edge>
    <edge id=":1040277404_7" function="internal">
        <lane id=":1040277404_7_0" index="0" allow="delivery bicycle pedestrian" speed="9.49" length="13.36" shape="855.29,904.63 853.74,906.79 853.71,909.41 855.22,912.48 858.25,916.02"/>
    </edge>
    <edge id=":1040277404_8" function="internal">
        <lane id=":1040277404_8_0" index="0" disallow="tram rail_urban rail rail_electric bicycle pedestrian ship" speed="13.41" length="13.88" shape="855.29,904.63 844.72,913.56"/>
        <lane id=":1040277404_8_1" index="1" disallow="tram rail_urban rail rail_electric bicycle pedestrian ship" speed="13.41" length="13.88" shape="853.17,902.09 842.54,911.08"/>
    </edge>
    <edge id=":1040277469_0" function="internal">
        <lane id=":1040277469_0_0" index="0" allow="delivery bicycle pedestrian" speed="5.56" length="4.93" shape="1074.82,923.62 1073.88,922.65 1072.86,922.23 1071.75,922.34 1070.55,922.99"/>
    </edge>
    <edge id=":1040277469_1" function="internal">
        <lane id=":1040277469_1_0" index="0" allow="delivery bicycle pedestrian" speed="5.56" length="10.27" shape="1074.82,923.62 1073.51,921.13 1073.31,918.81 1074.21,916.67 1076.21,914.70"/>
    </edge>
    <edge id=":1040277469_2" function="internal">
        <lane id=":1040277469_2_0" index="0" allow="delivery bicycle pedestrian" speed="5.56" length="4.82" shape="1074.82,923.62 1074.76,922.13 1075.19,921.31 1076.10,921.16 1077.49,921.68"/>
    </edge>
    <edge id=":1040277469_3" function="internal">
        <lane id=":1040277469_3_0" index="0" allow="delivery bicycle pedestrian" speed="5.56" length="4.99" shape="1078.17,917.35 1077.20,918.31 1076.76,919.35 1076.86,920.48 1077.49,921.68"/>
    </edge>
    <edge id=":1040277469_4" function="internal">
        <lane id=":1040277469_4_0" index="0" allow="delivery bicycle pedestrian" speed="5.56" length="9.47" shape="1078.17,917.35 1070.55,922.99"/>
    </edge>
    <edge id=":1040277469_5" function="internal">
        <lane id=":1040277469_5_0" index="0" allow="delivery bicycle pedestrian" speed="5.56" length="2.41" shape="1078.17,917.35 1076.68,917.43 1075.86,917.01"/>
    </edge>
    <edge id=":1040277469_9" function="internal">
        <lane id=":1040277469_9_0" index="0" speed="5.56" length="2.41" shape="1075.86,917.01 1075.70,916.10 1076.21,914.70"/>
    </edge>
    <edge id=":1040277469_6" function="internal">
        <lane id=":1040277469_6_0" index="0" allow="delivery bicycle pedestrian" speed="5.56" length="9.48" shape="1068.59,920.34 1076.21,914.70"/>
    </edge>
    <edge id=":1040277469_7" function="internal">
        <lane id=":1040277469_7_0" index="0" allow="delivery bicycle pedestrian" speed="5.56" length="5.29" shape="1068.59,920.34 1071.08,918.99 1073.40,918.76 1073.51,918.81"/>
    </edge>
    <edge id=":1040277469_8" function="internal">
        <lane id=":1040277469_8_0" index="0" allow="delivery bicycle pedestrian" speed="5.56" length="2.41" shape="1068.59,920.34 1070.07,920.26 1070.90,920.68"/>
    </edge>
    <edge id=":1040277469_10" function="internal">
        <lane id=":1040277469_10_0" index="0" speed="5.56" length="5.01" shape="1073.51,918.81 1075.54,919.66 1077.49,921.68"/>
    </edge>
    <edge id=":1040277469_11" function="internal">
        <lane id=":1040277469_11_0" index="0" speed="5.56" length="2.41" shape="1070.90,920.68 1071.06,921.59 1070.55,922.99"/>
    </edge>
    <edge id=":1040277472_0" function="internal">
        <lane id=":1040277472_0_0" index="0" allow="delivery bicycle pedestrian" speed="5.56" length="9.55" shape="1008.25,973.87 1002.53,966.24"/>
    </edge>
    <edge id=":1040277472_1" function="internal">
        <lane id=":1040277472_1_0" index="0" allow="delivery bicycle pedestrian" speed="5.56" length="10.35" shape="1008.25,973.87 1006.92,971.44 1006.68,969.12 1007.55,966.91 1009.52,964.83"/>
    </edge>
    <edge id=":1040277472_2" function="internal">
        <lane id=":1040277472_2_0" index="0" allow="delivery bicycle pedestrian" speed="5.56" length="4.82" shape="1008.25,973.87 1008.16,972.39 1008.57,971.56 1009.48,971.39 1010.88,971.88"/>
    </edge>
    <edge id=":1040277472_3" function="internal">
        <lane id=":1040277472_3_0" index="0" allow="delivery bicycle pedestrian" speed="5.56" length="5.14" shape="1011.59,967.40 1010.59,968.45 1010.14,969.54 1010.24,970.69 1010.88,971.88"/>
    </edge>
    <edge id=":1040277472_4" function="internal">
        <lane id=":1040277472_4_0" index="0" allow="delivery bicycle pedestrian" speed="5.56" length="10.51" shape="1011.59,967.40 1009.10,968.87 1006.76,969.17 1004.57,968.29 1002.53,966.24"/>
    </edge>
    <edge id=":1040277472_5" function="internal">
        <lane id=":1040277472_5_0" index="0" allow="delivery bicycle pedestrian" speed="5.56" length="4.82" shape="1011.59,967.40 1010.11,967.53 1009.27,967.15 1009.08,966.24 1009.52,964.83"/>
    </edge>
    <edge id=":1040277472_6" function="internal">
        <lane id=":1040277472_6_0" index="0" allow="delivery bicycle pedestrian" speed="5.56" length="5.04" shape="1005.17,964.27 1006.15,965.25 1007.20,965.68 1008.33,965.53 1009.52,964.83"/>
    </edge>
    <edge id=":1040277472_7" function="internal">
        <lane id=":1040277472_7_0" index="0" allow="delivery bicycle pedestrian" speed="5.56" length="9.52" shape="1005.17,964.27 1010.88,971.88"/>
    </edge>
    <edge id=":1040277472_8" function="internal">
        <lane id=":1040277472_8_0" index="0" allow="delivery bicycle pedestrian" speed="5.56" length="4.82" shape="1005.17,964.27 1005.25,965.75 1004.83,966.58 1003.93,966.74 1002.53,966.24"/>
    </edge>
    <edge id=":1040277502_0" function="internal">
        <lane id=":1040277502_0_0" index="0" allow="delivery bicycle pedestrian" speed="5.56" length="9.28" shape="1028.95,953.72 1021.59,959.37"/>
    </edge>
    <edge id=":1040277502_1" function="internal">
        <lane id=":1040277502_1_0" index="0" allow="delivery bicycle pedestrian" speed="5.56" length="10.30" shape="1028.95,953.72 1026.46,955.05 1024.14,955.27 1021.99,954.37 1020.01,952.36"/>
    </edge>
    <edge id=":1040277502_2" function="internal">
        <lane id=":1040277502_2_0" index="0" allow="delivery bicycle pedestrian" speed="5.56" length="4.82" shape="1028.95,953.72 1027.47,953.79 1026.65,953.37 1026.49,952.46 1027.00,951.06"/>
    </edge>
    <edge id=":1040277502_3" function="internal">
        <lane id=":1040277502_3_0" index="0" allow="delivery bicycle pedestrian" speed="5.56" length="5.00" shape="1022.67,950.40 1023.63,951.37 1024.67,951.81 1025.80,951.70 1027.00,951.06"/>
    </edge>
    <edge id=":1040277502_4" function="internal">
        <lane id=":1040277502_4_0" index="0" allow="delivery bicycle pedestrian" speed="5.56" length="10.21" shape="1022.67,950.40 1024.01,952.87 1024.28,955.19 1023.47,957.35 1021.59,959.37"/>
    </edge>
    <edge id=":1040277502_5" function="internal">
        <lane id=":1040277502_5_0" index="0" allow="delivery bicycle pedestrian" speed="5.56" length="4.82" shape="1022.67,950.40 1022.74,951.88 1022.32,952.71 1021.41,952.86 1020.01,952.36"/>
    </edge>
    <edge id=":1040277502_6" function="internal">
        <lane id=":1040277502_6_0" index="0" allow="delivery bicycle pedestrian" speed="5.56" length="5.05" shape="1019.52,956.80 1020.44,955.81 1020.83,954.74 1020.69,953.59 1020.01,952.36"/>
    </edge>
    <edge id=":1040277502_7" function="internal">
        <lane id=":1040277502_7_0" index="0" allow="delivery bicycle pedestrian" speed="5.56" length="9.43" shape="1019.52,956.80 1027.00,951.06"/>
    </edge>
    <edge id=":1040277502_8" function="internal">
        <lane id=":1040277502_8_0" index="0" allow="delivery bicycle pedestrian" speed="5.56" length="4.82" shape="1019.52,956.80 1021.00,956.67 1021.84,957.05 1022.03,957.95 1021.59,959.37"/>
    </edge>
    <edge id=":1040277504_0" function="internal">
        <lane id=":1040277504_0_0" index="0" allow="delivery bicycle pedestrian" speed="5.56" length="5.11" shape="833.75,700.08 832.75,699.05 831.68,698.54 830.53,698.55 829.31,699.09"/>
    </edge>
    <edge id=":1040277504_1" function="internal">
        <lane id=":1040277504_1_0" index="0" allow="delivery bicycle pedestrian" speed="5.56" length="10.33" shape="833.75,700.08 832.40,697.59 832.18,695.27 833.07,693.11 835.09,691.13"/>
    </edge>
    <edge id=":1040277504_2" function="internal">
        <lane id=":1040277504_2_0" index="0" allow="delivery bicycle pedestrian" speed="5.56" length="4.82" shape="833.75,700.08 833.67,698.60 834.09,697.77 835.00,697.62 836.40,698.12"/>
    </edge>
    <edge id=":1040277504_3" function="internal">
        <lane id=":1040277504_3_0" index="0" allow="delivery bicycle pedestrian" speed="5.56" length="5.00" shape="837.05,693.78 836.07,694.74 835.64,695.79 835.75,696.91 836.40,698.12"/>
    </edge>
    <edge id=":1040277504_4" function="internal">
        <lane id=":1040277504_4_0" index="0" allow="delivery bicycle pedestrian" speed="5.56" length="9.39" shape="837.05,693.78 829.31,699.09"/>
    </edge>
    <edge id=":1040277504_5" function="internal">
        <lane id=":1040277504_5_0" index="0" allow="delivery bicycle pedestrian" speed="5.56" length="4.82" shape="837.05,693.78 835.57,693.85 834.74,693.43 834.59,692.53 835.09,691.13"/>
    </edge>
    <edge id=":1040277504_6" function="internal">
        <lane id=":1040277504_6_0" index="0" allow="delivery bicycle pedestrian" speed="5.56" length="9.15" shape="827.54,696.30 835.09,691.13"/>
    </edge>
    <edge id=":1040277504_7" function="internal">
        <lane id=":1040277504_7_0" index="0" allow="delivery bicycle pedestrian" speed="5.56" length="10.15" shape="827.54,696.30 830.01,695.20 832.31,695.14 834.44,696.11 836.40,698.12"/>
    </edge>
    <edge id=":1040277504_8" function="internal">
        <lane id=":1040277504_8_0" index="0" allow="delivery bicycle pedestrian" speed="5.56" length="4.82" shape="827.54,696.30 829.03,696.34 829.82,696.81 829.91,697.73 829.31,699.09"/>
    </edge>
    <edge id=":1040277549_0" function="internal">
        <lane id=":1040277549_0_0" index="0" allow="delivery bicycle pedestrian" speed="5.56" length="4.82" shape="899.75,883.36 901.23,883.20 902.07,883.57 902.29,884.47 901.87,885.90"/>
    </edge>
    <edge id=":1040277564_0" function="internal">
        <lane id=":1040277564_0_0" index="0" allow="delivery bicycle pedestrian" speed="5.56" length="4.82" shape="857.10,836.31 858.57,836.12 859.42,836.48 859.65,837.37 859.25,838.81"/>
    </edge>
    <edge id=":1040277566_0" function="internal">
        <lane id=":1040277566_0_0" index="0" allow="delivery bicycle pedestrian" speed="5.56" length="5.00" shape="1100.14,985.52 1099.22,984.51 1098.19,984.03 1097.06,984.09 1095.83,984.69"/>
    </edge>
    <edge id=":1040277566_1" function="internal">
        <lane id=":1040277566_1_0" index="0" allow="delivery bicycle pedestrian" speed="5.56" length="10.20" shape="1100.14,985.52 1098.90,983.00 1098.72,980.67 1099.59,978.53 1101.53,976.58"/>
    </edge>
    <edge id=":1040277566_2" function="internal">
        <lane id=":1040277566_2_0" index="0" allow="delivery bicycle pedestrian" speed="5.56" length="4.82" shape="1100.14,985.52 1100.13,984.04 1100.58,983.23 1101.50,983.11 1102.87,983.68"/>
    </edge>
    <edge id=":1040277566_3" function="internal">
        <lane id=":1040277566_3_0" index="0" allow="delivery bicycle pedestrian" speed="5.56" length="5.08" shape="1103.51,979.22 1102.56,980.18 1102.14,981.24 1102.24,982.41 1102.87,983.68"/>
    </edge>
    <edge id=":1040277566_4" function="internal">
        <lane id=":1040277566_4_0" index="0" allow="delivery bicycle pedestrian" speed="5.56" length="9.42" shape="1103.51,979.22 1095.83,984.69"/>
    </edge>
    <edge id=":1040277566_5" function="internal">
        <lane id=":1040277566_5_0" index="0" allow="delivery bicycle pedestrian" speed="5.56" length="2.51" shape="1103.51,979.22 1102.02,979.31 1101.20,978.89 1101.18,978.79"/>
    </edge>
    <edge id=":1040277566_9" function="internal">
        <lane id=":1040277566_9_0" index="0" speed="5.56" length="2.31" shape="1101.18,978.79 1101.03,977.99 1101.53,976.58"/>
    </edge>
    <edge id=":1040277566_6" function="internal">
        <lane id=":1040277566_6_0" index="0" allow="delivery bicycle pedestrian" speed="5.56" length="9.26" shape="1093.98,981.95 1101.53,976.58"/>
    </edge>
    <edge id=":1040277566_7" function="internal">
        <lane id=":1040277566_7_0" index="0" allow="delivery bicycle pedestrian" speed="5.56" length="5.17" shape="1093.98,981.95 1096.53,980.72 1098.86,980.59"/>
    </edge>
    <edge id=":1040277566_8" function="internal">
        <lane id=":1040277566_8_0" index="0" allow="delivery bicycle pedestrian" speed="5.56" length="2.41" shape="1093.98,981.95 1095.47,981.94 1096.27,982.40"/>
    </edge>
    <edge id=":1040277566_10" function="internal">
        <lane id=":1040277566_10_0" index="0" speed="5.56" length="5.17" shape="1098.86,980.59 1100.97,981.58 1102.87,983.68"/>
    </edge>
    <edge id=":1040277566_11" function="internal">
        <lane id=":1040277566_11_0" index="0" speed="5.56" length="2.41" shape="1096.27,982.40 1096.39,983.31 1095.83,984.69"/>
    </edge>
    <edge id=":1040277602_0" function="internal">
        <lane id=":1040277602_0_0" index="0" allow="delivery bicycle pedestrian" speed="5.56" length="4.82" shape="758.70,720.90 760.19,720.79 761.02,721.19 761.20,722.10 760.73,723.51"/>
    </edge>
    <edge id=":1040277626_0" function="internal">
        <lane id=":1040277626_0_0" index="0" allow="delivery bicycle pedestrian" speed="5.56" length="5.00" shape="904.88,647.62 903.92,646.64 902.87,646.21 901.75,646.32 900.54,646.96"/>
    </edge>
    <edge id=":1040277626_1" function="internal">
        <lane id=":1040277626_1_0" index="0" allow="delivery bicycle pedestrian" speed="5.56" length="4.82" shape="904.88,647.62 904.81,646.13 905.23,645.31 906.13,645.15 907.53,645.65"/>
    </edge>
    <edge id=":1040277626_2" function="internal">
        <lane id=":1040277626_2_0" index="0" allow="delivery bicycle pedestrian" speed="5.56" length="10.32" shape="898.59,644.31 901.07,642.97 903.40,642.75 905.55,643.64 907.53,645.65"/>
    </edge>
    <edge id=":1040277626_3" function="internal">
        <lane id=":1040277626_3_0" index="0" allow="delivery bicycle pedestrian" speed="5.56" length="4.82" shape="898.59,644.31 900.07,644.24 900.89,644.66 901.05,645.57 900.54,646.96"/>
    </edge>
    <edge id=":1040277628_0" function="internal">
        <lane id=":1040277628_0_0" index="0" allow="delivery bicycle pedestrian" speed="5.56" length="4.99" shape="1037.89,947.16 1033.87,950.12"/>
    </edge>
    <edge id=":1040277628_1" function="internal">
        <lane id=":1040277628_1_0" index="0" allow="delivery bicycle pedestrian" speed="5.56" length="2.41" shape="1037.89,947.16 1036.41,947.23 1035.59,946.81"/>
    </edge>
    <edge id=":1040277628_4" function="internal">
        <lane id=":1040277628_4_0" index="0" speed="5.56" length="2.41" shape="1035.59,946.81 1035.43,945.90 1035.93,944.50"/>
    </edge>
    <edge id=":1040277628_2" function="internal">
        <lane id=":1040277628_2_0" index="0" allow="delivery bicycle pedestrian" speed="5.56" length="4.97" shape="1031.92,947.45 1035.93,944.50"/>
    </edge>
    <edge id=":1040277628_3" function="internal">
        <lane id=":1040277628_3_0" index="0" allow="delivery bicycle pedestrian" speed="5.56" length="2.41" shape="1031.92,947.45 1033.41,947.39 1034.23,947.81"/>
    </edge>
    <edge id=":1040277628_5" function="internal">
        <lane id=":1040277628_5_0" index="0" speed="5.56" length="2.41" shape="1034.23,947.81 1034.39,948.72 1033.87,950.12"/>
    </edge>
    <edge id=":1040277634_0" function="internal">
        <lane id=":1040277634_0_0" index="0" allow="delivery bicycle pedestrian" speed="5.56" length="5.02" shape="876.08,757.28 875.12,756.31 874.07,755.87 872.94,755.98 871.72,756.63"/>
    </edge>
    <edge id=":1040277634_1" function="internal">
        <lane id=":1040277634_1_0" index="0" allow="delivery bicycle pedestrian" speed="5.56" length="9.50" shape="876.08,757.28 870.43,749.64"/>
    </edge>
    <edge id=":1040277634_2" function="internal">
        <lane id=":1040277634_2_0" index="0" allow="delivery bicycle pedestrian" speed="5.56" length="4.82" shape="876.08,757.28 876.01,755.79 876.42,754.97 877.33,754.81 878.73,755.32"/>
    </edge>
    <edge id=":1040277634_3" function="internal">
        <lane id=":1040277634_3_0" index="0" allow="delivery bicycle pedestrian" speed="5.56" length="9.50" shape="873.09,747.68 878.73,755.32"/>
    </edge>
    <edge id=":1040277634_4" function="internal">
        <lane id=":1040277634_4_0" index="0" allow="delivery bicycle pedestrian" speed="5.56" length="10.34" shape="873.09,747.68 874.43,750.17 874.65,752.50 873.75,754.65 871.72,756.63"/>
    </edge>
    <edge id=":1040277634_5" function="internal">
        <lane id=":1040277634_5_0" index="0" allow="delivery bicycle pedestrian" speed="5.56" length="4.82" shape="873.09,747.68 873.16,749.16 872.74,749.98 871.83,750.14 870.43,749.64"/>
    </edge>
    <edge id=":1040277634_6" function="internal">
        <lane id=":1040277634_6_0" index="0" allow="delivery bicycle pedestrian" speed="5.56" length="5.00" shape="869.77,753.97 870.75,753.01 871.19,751.97 871.08,750.85 870.43,749.64"/>
    </edge>
    <edge id=":1040277634_7" function="internal">
        <lane id=":1040277634_7_0" index="0" allow="delivery bicycle pedestrian" speed="5.56" length="10.32" shape="869.77,753.97 872.27,752.64 874.60,752.42 876.75,753.31 878.73,755.32"/>
    </edge>
    <edge id=":1040277634_8" function="internal">
        <lane id=":1040277634_8_0" index="0" allow="delivery bicycle pedestrian" speed="5.56" length="4.82" shape="869.77,753.97 871.26,753.91 872.08,754.33 872.23,755.24 871.72,756.63"/>
    </edge>
    <edge id=":1040277647_0" function="internal">
        <lane id=":1040277647_0_0" index="0" allow="delivery bicycle pedestrian" speed="5.56" length="9.61" shape="813.96,712.93 808.26,705.20"/>
    </edge>
    <edge id=":1040277647_1" function="internal">
        <lane id=":1040277647_1_0" index="0" allow="delivery bicycle pedestrian" speed="5.56" length="10.73" shape="813.96,712.93 812.53,710.32 812.33,707.94 813.37,705.78 815.63,703.85"/>
    </edge>
    <edge id=":1040277647_2" function="internal">
        <lane id=":1040277647_2_0" index="0" allow="delivery bicycle pedestrian" speed="5.56" length="4.82" shape="813.96,712.93 813.88,711.44 814.29,710.62 815.20,710.45 816.60,710.95"/>
    </edge>
    <edge id=":1040277647_3" function="internal">
        <lane id=":1040277647_3_0" index="0" allow="delivery bicycle pedestrian" speed="5.56" length="5.10" shape="817.39,706.63 816.32,707.55 815.83,708.58 815.92,709.71 816.60,710.95"/>
    </edge>
    <edge id=":1040277647_4" function="internal">
        <lane id=":1040277647_4_0" index="0" allow="delivery bicycle pedestrian" speed="5.56" length="10.40" shape="817.39,706.63 814.74,707.86 812.33,708.03 810.17,707.14 808.26,705.20"/>
    </edge>
    <edge id=":1040277647_5" function="internal">
        <lane id=":1040277647_5_0" index="0" allow="delivery bicycle pedestrian" speed="5.56" length="4.82" shape="817.39,706.63 815.90,706.60 815.11,706.12 815.02,705.20 815.63,703.85"/>
    </edge>
    <edge id=":1040277647_6" function="internal">
        <lane id=":1040277647_6_0" index="0" allow="delivery bicycle pedestrian" speed="5.56" length="5.31" shape="810.94,703.26 811.89,704.21 812.99,704.63 814.23,704.50 815.63,703.85"/>
    </edge>
    <edge id=":1040277647_7" function="internal">
        <lane id=":1040277647_7_0" index="0" allow="delivery bicycle pedestrian" speed="5.56" length="9.55" shape="810.94,703.26 816.60,710.95"/>
    </edge>
    <edge id=":1040277647_8" function="internal">
        <lane id=":1040277647_8_0" index="0" allow="delivery bicycle pedestrian" speed="5.56" length="4.82" shape="810.94,703.26 810.99,704.75 810.56,705.57 809.65,705.72 808.26,705.20"/>
    </edge>
    <edge id=":1040277653_0" function="internal">
        <lane id=":1040277653_0_0" index="0" allow="delivery bicycle pedestrian" speed="5.56" length="5.00" shape="1087.90,910.21 1083.86,913.16"/>
    </edge>
    <edge id=":1040277653_1" function="internal">
        <lane id=":1040277653_1_0" index="0" allow="delivery bicycle pedestrian" speed="5.56" length="2.41" shape="1087.90,910.21 1086.41,910.27 1085.59,909.85"/>
    </edge>
    <edge id=":1040277653_4" function="internal">
        <lane id=":1040277653_4_0" index="0" speed="5.56" length="2.41" shape="1085.59,909.85 1085.44,908.94 1085.96,907.54"/>
    </edge>
    <edge id=":1040277653_2" function="internal">
        <lane id=":1040277653_2_0" index="0" allow="delivery bicycle pedestrian" speed="5.56" length="5.01" shape="1081.91,910.49 1085.96,907.54"/>
    </edge>
    <edge id=":1040277653_3" function="internal">
        <lane id=":1040277653_3_0" index="0" allow="delivery bicycle pedestrian" speed="5.56" length="2.41" shape="1081.91,910.49 1083.40,910.43 1084.22,910.85"/>
    </edge>
    <edge id=":1040277653_5" function="internal">
        <lane id=":1040277653_5_0" index="0" speed="5.56" length="2.41" shape="1084.22,910.85 1084.37,911.76 1083.86,913.16"/>
    </edge>
    <edge id=":1040277660_0" function="internal">
        <lane id=":1040277660_0_0" index="0" allow="delivery bicycle pedestrian" speed="5.56" length="4.91" shape="941.38,931.72 937.49,934.72"/>
    </edge>
    <edge id=":1040277660_1" function="internal">
        <lane id=":1040277660_1_0" index="0" allow="delivery bicycle pedestrian" speed="5.56" length="2.52" shape="941.38,931.72 939.90,931.87 939.06,931.49 939.03,931.39"/>
    </edge>
    <edge id=":1040277660_4" function="internal">
        <lane id=":1040277660_4_0" index="0" speed="5.56" length="2.30" shape="939.03,931.39 938.85,930.59 939.29,929.17"/>
    </edge>
    <edge id=":1040277660_2" function="internal">
        <lane id=":1040277660_2_0" index="0" allow="delivery bicycle pedestrian" speed="5.56" length="4.72" shape="935.55,932.06 939.29,929.17"/>
    </edge>
    <edge id=":1040277660_3" function="internal">
        <lane id=":1040277660_3_0" index="0" allow="delivery bicycle pedestrian" speed="5.56" length="2.41" shape="935.55,932.06 937.03,931.99 937.85,932.42"/>
    </edge>
    <edge id=":1040277660_5" function="internal">
        <lane id=":1040277660_5_0" index="0" speed="5.56" length="2.41" shape="937.85,932.42 938.00,933.33 937.49,934.72"/>
    </edge>
    <edge id=":1040277675_0" function="internal">