<?xml version="1.0"?>
<!-- generated on 2017-09-28 00:00:44.453002 by $Id: randomTrips.py 23999 2017-04-21 09:04:47Z behrisch $
  options: -n smallmap.net.xml -r smallmap.rou.xml -e 50 -l
-->
<routes>
    <trip id="0" depart="0.00" from="-5587241#1" to="5573939"/>
    <trip id="1" depart="1.00" from="43763490#5" to="5570462#1"/>
    <trip id="2" depart="2.00" from="319337750#0" to="5570020"/>
    <trip id="3" depart="3.00" from="5586625#0" to="5588383#3"/>
    <trip id="4" depart="4.00" from="-32835777#8" to="38208897#5"/>
    <trip id="5" depart="5.00" from="-173689701#1" to="33904607#2"/>
    <trip id="6" depart="6.00" from="5588383#3" to="-35970303#3"/>
    <trip id="7" depart="7.00" from="-319337750#1" to="5589899#1"/>
    <trip id="8" depart="8.00" from="-5594634#0" to="82246909"/>
    <trip id="9" depart="9.00" from="5595156#2" to="32835777#1"/>
    <trip id="10" depart="10.00" from="-261122620#0" to="516224391#7"/>
    <trip id="11" depart="11.00" from="5570462#0" to="-32835777#2"/>
    <trip id="12" depart="12.00" from="-43763489#2" to="173689701#6"/>
    <trip id="13" depart="13.00" from="5582560#1" to="-88968224#0"/>
    <trip id="14" depart="14.00" from="516224378#1" to="43763489#2"/>
    <trip id="15" depart="15.00" from="-44092707#4" to="5566276#0"/>
    <trip id="16" depart="16.00" from="5591175#16" to="-516224383#0"/>
    <trip id="17" depart="17.00" from="-5587802#1" to="25533416#1"/>
    <trip id="18" depart="18.00" from="-5585826#1" to="5573939"/>
    <trip id="19" depart="19.00" from="-5587868#3" to="5569007"/>
    <trip id="20" depart="20.00" from="5580169#2" to="-44092707#3"/>
    <trip id="21" depart="21.00" from="-5573939" to="-45829588#1"/>
    <trip id="22" depart="22.00" from="-319487943#2" to="-88968224#4"/>
    <trip id="23" depart="23.00" from="-5573939" to="106201552#1"/>
    <trip id="24" depart="24.00" from="392481477" to="5587802#1"/>
    <trip id="25" depart="25.00" from="173689701#4" to="516224372#1"/>
    <trip id="26" depart="26.00" from="45829588#1" to="194772224#1"/>
    <trip id="27" depart="27.00" from="35926400#2" to="-35970303#2"/>
    <trip id="28" depart="28.00" from="35970303#0" to="5588383#4"/>
    <trip id="29" depart="29.00" from="516224372#2" to="5573928#1"/>
    <trip id="30" depart="30.00" from="44706379#3" to="5573939"/>
    <trip id="31" depart="31.00" from="-5573939" to="35970303#1"/>
    <trip id="32" depart="32.00" from="5571352#0" to="38208897#5"/>
    <trip id="33" depart="33.00" from="-5587802#1" to="5590547"/>
    <trip id="34" depart="34.00" from="5591175#3" to="35970303#3"/>
    <trip id="35" depart="35.00" from="88968224#1" to="-5582560#1"/>
    <trip id="36" depart="36.00" from="88968224#4" to="25014534#1"/>
    <trip id="37" depart="37.00" from="516224383#1" to="5591175#2"/>
    <trip id="38" depart="38.00" from="-392481477" to="5591175#2"/>
    <trip id="39" depart="39.00" from="5575361#0" to="35926590#3"/>
    <trip id="40" depart="40.00" from="5569007" to="82246909"/>
    <trip id="41" depart="41.00" from="516224383#0" to="516224397#2"/>
    <trip id="42" depart="42.00" from="88968224#1" to="5573455"/>
    <trip id="43" depart="43.00" from="-392481477" to="44092707#4"/>
    <trip id="44" depart="44.00" from="-5585826#1" to="35926400#2"/>
    <trip id="45" depart="45.00" from="-44092707#4" to="5569097"/>
    <trip id="46" depart="46.00" from="-5587241#5" to="44706379#5"/>
    <trip id="47" depart="47.00" from="5580331#0" to="5586625#1"/>
    <trip id="48" depart="48.00" from="-5582560#2" to="5573928#0"/>
    <trip id="49" depart="49.00" from="5580331#0" to="35926400#2"/>
</routes>
