<?xml version="1.0" encoding="UTF-8"?>

<!-- generated on Sat Sep 23 22:45:10 2017 by SUMO polyconvert Version 0.30.0
<?xml version="1.0" encoding="UTF-8"?>

<configuration xmlns:xsi="http://www.w3.org/2001/XMLSchema-instance" xsi:noNamespaceSchemaLocation="http://sumo.dlr.de/xsd/polyconvertConfiguration.xsd">

    <input>
        <net-file value="map.net.xml"/>
        <osm-files value="map.osm"/>
        <type-file value="typemap.xml"/>
    </input>

    <output>
        <output-file value="map.poly.xml"/>
    </output>

    <processing>
        <poi-layer-offset value="5"/>
    </processing>

</configuration>
-->

<additional xmlns:xsi="http://www.w3.org/2001/XMLSchema-instance" xsi:noNamespaceSchemaLocation="http://sumo.dlr.de/xsd/additional_file.xsd">
    <location netOffset="-596835.20,-4721032.37" convBoundary="-4927.31,-52357.98,14765.60,12940.02" origBoundary="-73.887369,42.164811,-73.638826,42.750733" projParameter="+proj=utm +zone=18 +ellps=WGS84 +datum=WGS84 +units=m +no_defs"/>

    <poly id="100220723" type="building" color="255,230,230" fill="1" layer="-1.00" shape="3353.03,1760.59 3385.37,1714.39 3400.18,1723.80 3394.35,1732.05 3400.01,1735.42 3401.25,1740.91 3409.62,1740.59 3410.90,1758.35 3403.41,1758.91 3405.15,1783.45 3397.71,1783.83 3397.80,1782.07 3395.66,1778.09 3393.50,1774.98 3390.01,1773.19 3386.95,1772.27 3366.80,1773.85 3358.76,1774.48 3354.33,1777.49 3351.65,1780.08 3349.84,1783.12 3348.90,1787.49 3338.78,1787.78 3338.88,1781.20 3342.62,1781.03 3343.76,1778.20 3345.78,1775.16 3349.13,1771.71 3350.05,1769.10 3350.08,1766.46 3356.03,1766.11 3353.03,1760.59"/>
    <poly id="100220726" type="building" color="255,230,230" fill="1" layer="-1.00" shape="3313.39,1639.75 3308.97,1643.15 3344.84,1689.34 3363.65,1674.84 3349.54,1656.67 3328.29,1629.32 3324.32,1632.38 3320.41,1627.34 3309.99,1635.38 3313.39,1639.75"/>
    <poly id="100220731" type="building" color="255,230,230" fill="1" layer="-1.00" shape="3167.64,1854.02 3166.25,1829.89 3149.75,1830.83 3148.06,1801.62 3169.08,1800.42 3168.95,1798.16 3167.64,1772.24 3206.00,1770.32 3207.41,1798.04 3209.02,1826.17 3212.85,1825.95 3214.31,1851.36 3167.64,1854.02"/>
    <poly id="100220735" type="amenity" color="237,199,199" fill="1" layer="-1.00" shape="3343.20,1847.44 3342.07,1834.28 3357.03,1833.62 3356.65,1829.67 3359.30,1828.83 3358.56,1819.18 3354.63,1816.93 3351.16,1813.81 3348.56,1811.15 3347.73,1807.63 3347.77,1805.00 3338.98,1804.87 3338.78,1787.78 3348.90,1787.49 3349.84,1783.12 3351.65,1780.08 3354.33,1777.49 3358.76,1774.48 3366.80,1773.85 3386.95,1772.27 3390.01,1773.19 3393.50,1774.98 3395.66,1778.09 3397.80,1782.07 3397.71,1783.83 3405.15,1783.45 3409.49,1783.21 3411.11,1801.14 3403.23,1801.86 3401.84,1807.10 3399.13,1811.44 3395.10,1816.20 3395.27,1827.64 3397.45,1827.39 3397.24,1829.95 3410.31,1829.13 3410.54,1844.04 3396.57,1844.36 3396.18,1846.98 3390.68,1847.27 3391.20,1851.75 3378.43,1852.23 3366.26,1852.70 3366.77,1849.20 3359.41,1849.88 3359.48,1847.24 3343.20,1847.44"/>
    <poly id="100220735#1" type="building" color="255,230,230" fill="1" layer="-1.00" shape="3343.20,1847.44 3342.07,1834.28 3357.03,1833.62 3356.65,1829.67 3359.30,1828.83 3358.56,1819.18 3354.63,1816.93 3351.16,1813.81 3348.56,1811.15 3347.73,1807.63 3347.77,1805.00 3338.98,1804.87 3338.78,1787.78 3348.90,1787.49 3349.84,1783.12 3351.65,1780.08 3354.33,1777.49 3358.76,1774.48 3366.80,1773.85 3386.95,1772.27 3390.01,1773.19 3393.50,1774.98 3395.66,1778.09 3397.80,1782.07 3397.71,1783.83 3405.15,1783.45 3409.49,1783.21 3411.11,1801.14 3403.23,1801.86 3401.84,1807.10 3399.13,1811.44 3395.10,1816.20 3395.27,1827.64 3397.45,1827.39 3397.24,1829.95 3410.31,1829.13 3410.54,1844.04 3396.57,1844.36 3396.18,1846.98 3390.68,1847.27 3391.20,1851.75 3378.43,1852.23 3366.26,1852.70 3366.77,1849.20 3359.41,1849.88 3359.48,1847.24 3343.20,1847.44"/>
    <poly id="100220742" type="building" color="255,230,230" fill="1" layer="-1.00" shape="3015.05,1914.03 3014.29,1899.05 3026.37,1898.44 3023.46,1841.17 3084.94,1838.09 3086.61,1870.87 3069.23,1871.75 3071.23,1911.21 3043.99,1912.58 3015.05,1914.03"/>
    <poly id="100220749" type="building" color="255,230,230" fill="1" layer="-1.00" shape="3333.30,1516.23 3346.53,1496.68 3327.16,1483.66 3313.94,1503.21 3333.30,1516.23"/>
    <poly id="100220761" type="leisure" color="207,245,201" fill="1" layer="-2.00" shape="3110.17,1537.76 3198.67,1470.23 3235.32,1521.17 3149.52,1584.78 3110.17,1537.76"/>
    <poly id="100220761#1" type="sport" color="79,230,125" fill="1" layer="-2.00" shape="3110.17,1537.76 3198.67,1470.23 3235.32,1521.17 3149.52,1584.78 3110.17,1537.76"/>
    <poly id="100220765" type="building" color="255,230,230" fill="1" layer="-1.00" shape="3115.00,1629.41 3115.50,1625.69 3120.78,1625.99 3122.02,1616.15 3117.11,1615.47 3117.26,1610.60 3106.06,1609.34 3106.01,1612.85 3103.37,1612.81 3103.65,1608.87 3093.11,1607.19 3092.37,1611.34 3089.32,1610.86 3089.82,1606.92 3079.72,1605.90 3079.22,1609.19 3075.28,1609.12 3075.99,1605.19 3065.89,1603.94 3064.96,1607.65 3059.91,1607.14 3058.76,1605.75 3057.53,1604.26 3057.79,1601.42 3061.53,1601.69 3063.18,1590.34 3058.84,1590.04 3059.10,1587.20 3063.27,1587.69 3064.30,1577.19 3061.23,1576.49 3061.48,1574.30 3063.72,1571.70 3067.02,1571.75 3066.74,1575.69 3077.72,1576.72 3078.65,1572.79 3083.04,1573.74 3084.03,1566.52 3081.17,1566.03 3081.67,1562.10 3079.26,1561.41 3079.71,1557.48 3069.43,1556.67 3068.94,1560.16 3066.30,1560.12 3063.92,1557.47 3063.96,1555.06 3067.48,1555.11 3068.96,1543.51 3065.45,1543.03 3065.93,1540.62 3069.44,1540.67 3070.69,1530.17 3066.31,1529.67 3066.81,1524.63 3061.32,1524.34 3061.60,1520.84 3057.41,1520.78 3057.02,1527.37 3052.04,1527.27 3051.00,1538.65 3054.08,1538.92 3053.82,1541.76 3049.86,1541.48 3048.83,1552.21 3052.34,1552.69 3051.98,1555.71 3048.96,1558.13 3046.33,1558.09 3046.38,1554.15 3036.06,1552.68 3035.57,1555.96 3030.44,1555.68 3029.77,1562.45 3032.18,1562.71 3031.44,1566.66 3034.21,1566.76 3034.03,1571.50 3044.57,1572.74 3044.84,1569.24 3048.14,1569.50 3049.64,1572.38 3049.60,1575.01 3045.42,1574.95 3044.61,1585.67 3048.99,1585.73 3048.52,1588.80 3044.34,1588.74 3043.09,1599.23 3046.60,1599.72 3046.34,1602.78 3043.44,1604.93 3039.93,1604.88 3039.99,1600.50 3026.38,1598.99 3024.62,1614.30 3027.92,1614.57 3027.82,1618.53 3038.84,1619.77 3039.10,1616.48 3041.96,1616.53 3044.35,1619.19 3043.64,1622.03 3040.13,1621.32 3038.88,1632.25 3042.61,1632.75 3042.08,1638.44 3047.80,1639.18 3047.54,1641.81 3051.92,1642.30 3052.00,1637.26 3053.98,1637.29 3054.10,1634.85 3057.31,1634.72 3059.01,1624.22 3055.28,1623.73 3055.75,1620.89 3058.20,1618.95 3063.03,1619.02 3062.77,1622.52 3074.18,1623.79 3074.01,1620.71 3076.64,1620.75 3076.59,1624.48 3087.35,1625.94 3087.18,1622.22 3090.92,1622.48 3090.41,1626.64 3101.84,1627.68 3102.33,1623.97 3104.74,1624.44 3104.25,1628.16 3115.00,1629.41"/>
    <poly id="100220774" type="building" color="255,230,230" fill="1" layer="-1.00" shape="3204.63,1666.21 3232.23,1705.17 3236.68,1700.86 3244.97,1705.80 3245.99,1696.60 3267.50,1699.10 3267.55,1695.61 3263.60,1694.67 3265.12,1680.67 3261.28,1672.72 3256.09,1666.52 3251.33,1661.63 3233.76,1659.62 3229.42,1655.17 3224.97,1659.05 3221.09,1653.74 3204.63,1666.21"/>
    <poly id="100220782" type="amenity" color="237,199,199" fill="1" layer="-1.00" shape="3357.20,1784.17 3355.70,1803.80 3356.96,1808.20 3359.55,1810.61 3389.54,1809.52 3393.04,1806.98 3393.53,1803.91 3391.60,1785.04 3389.88,1782.38 3387.26,1780.59 3362.53,1781.38 3357.20,1784.17"/>
    <poly id="100220782#1" type="building" color="255,230,230" fill="1" layer="-1.00" shape="3357.20,1784.17 3355.70,1803.80 3356.96,1808.20 3359.55,1810.61 3389.54,1809.52 3393.04,1806.98 3393.53,1803.91 3391.60,1785.04 3389.88,1782.38 3387.26,1780.59 3362.53,1781.38 3357.20,1784.17"/>
    <poly id="100220785" type="amenity" color="237,199,199" fill="1" layer="-1.00" shape="3232.26,1885.28 3230.93,1855.46 3246.34,1854.37 3246.57,1869.27 3255.47,1868.67 3260.53,1868.10 3259.68,1862.92 3270.35,1862.04 3270.04,1857.71 3270.10,1853.40 3263.07,1853.30 3262.81,1840.58 3285.26,1839.59 3286.50,1845.31 3293.42,1840.01 3297.16,1837.13 3326.95,1876.13 3315.38,1885.17 3307.62,1874.97 3307.30,1884.96 3293.51,1885.53 3293.80,1888.05 3281.47,1888.64 3266.29,1889.41 3265.99,1887.22 3252.44,1888.00 3252.42,1884.32 3232.26,1885.28"/>
    <poly id="100220785#1" type="building" color="255,230,230" fill="1" layer="-1.00" shape="3232.26,1885.28 3230.93,1855.46 3246.34,1854.37 3246.57,1869.27 3255.47,1868.67 3260.53,1868.10 3259.68,1862.92 3270.35,1862.04 3270.04,1857.71 3270.10,1853.40 3263.07,1853.30 3262.81,1840.58 3285.26,1839.59 3286.50,1845.31 3293.42,1840.01 3297.16,1837.13 3326.95,1876.13 3315.38,1885.17 3307.62,1874.97 3307.30,1884.96 3293.51,1885.53 3293.80,1888.05 3281.47,1888.64 3266.29,1889.41 3265.99,1887.22 3252.44,1888.00 3252.42,1884.32 3232.26,1885.28"/>
    <poly id="100220788" type="building" color="255,230,230" fill="1" layer="-1.00" shape="3301.70,1752.60 3297.26,1756.04 3302.09,1762.21 3288.01,1773.16 3283.25,1767.07 3279.28,1770.16 3260.25,1745.85 3265.77,1741.56 3262.97,1737.99 3269.72,1732.74 3275.93,1727.92 3278.90,1731.72 3282.91,1728.60 3301.70,1752.60"/>
    <poly id="100220788#1" type="leisure" color="207,245,201" fill="1" layer="-2.00" shape="3301.70,1752.60 3297.26,1756.04 3302.09,1762.21 3288.01,1773.16 3283.25,1767.07 3279.28,1770.16 3260.25,1745.85 3265.77,1741.56 3262.97,1737.99 3269.72,1732.74 3275.93,1727.92 3278.90,1731.72 3282.91,1728.60 3301.70,1752.60"/>
    <poly id="100220789" type="parking" color="184,184,179" fill="1" layer="-1.00" shape="3097.01,1744.16 3103.77,1691.05 3097.42,1690.25 3098.24,1683.82 3075.93,1681.00 3058.34,1678.77 3033.68,1675.65 3032.71,1683.24 3027.84,1682.63 3021.50,1732.45 3028.93,1733.39 3028.32,1738.25 3053.88,1741.48 3053.14,1747.29 3062.43,1748.47 3063.12,1743.01 3089.33,1746.32 3089.73,1743.23 3097.01,1744.16"/>
    <poly id="100220789#1" type="building" color="255,230,230" fill="1" layer="-1.00" shape="3097.01,1744.16 3103.77,1691.05 3097.42,1690.25 3098.24,1683.82 3075.93,1681.00 3058.34,1678.77 3033.68,1675.65 3032.71,1683.24 3027.84,1682.63 3021.50,1732.45 3028.93,1733.39 3028.32,1738.25 3053.88,1741.48 3053.14,1747.29 3062.43,1748.47 3063.12,1743.01 3089.33,1746.32 3089.73,1743.23 3097.01,1744.16"/>
    <poly id="100220803" type="amenity" color="237,199,199" fill="1" layer="-1.00" shape="3286.57,1859.83 3285.93,1854.06 3292.53,1853.73 3302.02,1866.57 3297.63,1866.51 3296.77,1859.73 3286.57,1859.83"/>
    <poly id="100220803#1" type="building" color="255,230,230" fill="1" layer="-1.00" shape="3286.57,1859.83 3285.93,1854.06 3292.53,1853.73 3302.02,1866.57 3297.63,1866.51 3296.77,1859.73 3286.57,1859.83"/>
    <poly id="100220808" type="building" color="255,230,230" fill="1" layer="-1.00" shape="3142.59,1668.37 3144.33,1654.15 3136.22,1653.16 3134.47,1667.38 3142.59,1668.37"/>
    <poly id="100220816" type="building" color="255,230,230" fill="1" layer="-1.00" shape="3340.93,1707.53 3331.25,1695.07 3312.01,1709.91 3291.07,1726.06 3300.75,1738.52 3340.93,1707.53"/>
    <poly id="100220821" type="building" color="255,230,230" fill="1" layer="-1.00" shape="3004.97,1792.11 3009.32,1755.32 3070.57,1762.51 3094.28,1765.30 3090.97,1793.26 3065.52,1790.27 3064.47,1799.10 3004.97,1792.11"/>
    <poly id="100220823" type="leisure" color="207,245,201" fill="1" layer="-2.00" shape="3132.94,1605.58 3129.07,1599.39 3135.73,1595.10 3125.63,1594.07 3118.17,1592.66 3112.50,1589.51 3105.96,1585.47 3101.22,1578.83 3098.66,1573.53 3096.56,1566.49 3094.48,1558.13 3096.31,1552.90 3099.52,1544.18 3091.97,1549.33 3087.63,1544.89 3214.36,1449.42 3218.69,1453.87 3212.03,1458.60 3220.39,1458.72 3227.38,1461.45 3234.81,1465.06 3241.32,1471.29 3246.93,1478.38 3251.23,1485.45 3252.88,1492.50 3251.90,1499.92 3250.45,1509.11 3257.12,1504.39 3261.86,1510.59 3196.39,1558.83 3132.94,1605.58"/>
    <poly id="100220823#1" type="sport" color="79,230,125" fill="1" layer="-2.00" shape="3132.94,1605.58 3129.07,1599.39 3135.73,1595.10 3125.63,1594.07 3118.17,1592.66 3112.50,1589.51 3105.96,1585.47 3101.22,1578.83 3098.66,1573.53 3096.56,1566.49 3094.48,1558.13 3096.31,1552.90 3099.52,1544.18 3091.97,1549.33 3087.63,1544.89 3214.36,1449.42 3218.69,1453.87 3212.03,1458.60 3220.39,1458.72 3227.38,1461.45 3234.81,1465.06 3241.32,1471.29 3246.93,1478.38 3251.23,1485.45 3252.88,1492.50 3251.90,1499.92 3250.45,1509.11 3257.12,1504.39 3261.86,1510.59 3196.39,1558.83 3132.94,1605.58"/>
    <poly id="100331130" type="building" color="255,230,230" fill="1" layer="-1.00" shape="3199.95,1347.02 3213.28,1356.19 3228.54,1334.16 3222.89,1330.28 3224.46,1328.01 3221.09,1325.69 3219.72,1327.66 3215.41,1324.70 3199.95,1347.02"/>
    <poly id="100331135" type="building" color="255,230,230" fill="1" layer="-1.00" shape="3459.34,1343.84 3414.69,1313.61 3434.03,1284.31 3435.99,1285.87 3453.73,1260.49 3500.77,1292.06 3494.42,1301.14 3489.09,1308.76 3484.19,1305.66 3477.10,1301.16 3471.47,1309.20 3478.90,1314.76 3459.34,1343.84"/>
    <poly id="100331140" type="building" color="255,230,230" fill="1" layer="-1.00" shape="3091.10,1447.29 3081.88,1448.86 3060.95,1450.50 3049.63,1450.79 3040.10,1449.61 3051.34,1346.92 3057.27,1347.68 3061.81,1337.88 3065.95,1340.13 3074.57,1322.95 3069.12,1318.70 3075.93,1304.77 3070.47,1301.63 3077.03,1289.02 3098.22,1299.18 3089.60,1316.59 3096.60,1319.98 3103.17,1306.92 3104.90,1308.48 3107.39,1303.69 3121.14,1310.47 3107.79,1336.14 3106.05,1335.45 3094.27,1358.94 3086.85,1355.54 3087.75,1353.37 3081.64,1349.99 3092.28,1329.56 3084.83,1325.50 3083.73,1327.90 3080.88,1326.31 3079.51,1330.25 3075.58,1328.65 3069.68,1341.28 3074.27,1343.31 3068.86,1352.22 3071.49,1353.36 3068.56,1358.13 3071.90,1370.46 3075.50,1369.87 3076.46,1373.81 3075.54,1377.29 3073.11,1377.91 3091.10,1447.29"/>
    <poly id="100331144" type="building" color="255,230,230" fill="1" layer="-1.00" shape="3111.06,1094.70 3142.02,1113.34 3144.72,1109.21 3150.47,1107.33 3149.01,1101.61 3151.26,1098.13 3148.21,1095.90 3147.00,1088.65 3148.79,1086.27 3145.31,1083.80 3143.20,1077.63 3136.58,1078.64 3124.82,1071.24 3111.06,1094.70"/>
    <poly id="100331150" type="parking" color="184,184,179" fill="1" layer="-1.00" shape="3567.46,1272.67 3709.26,1321.62 3753.63,1355.13 3720.70,1412.06 3695.87,1395.92 3691.59,1402.82 3626.43,1359.01 3604.57,1391.29 3598.60,1399.77 3508.91,1337.12 3528.67,1308.92 3559.00,1279.99 3567.46,1272.67"/>
    <poly id="100331159" type="building" color="255,230,230" fill="1" layer="-1.00" shape="3322.22,1360.62 3341.54,1332.06 3312.99,1312.88 3314.27,1310.98 3301.53,1302.42 3287.18,1323.62 3294.69,1328.67 3288.29,1338.13 3265.79,1323.01 3270.02,1316.75 3272.68,1318.53 3285.62,1299.41 3282.78,1297.52 3288.51,1289.04 3289.63,1289.79 3297.52,1278.12 3327.51,1298.28 3325.52,1301.22 3354.42,1320.63 3356.37,1317.74 3372.37,1328.49 3368.37,1334.40 3361.86,1330.03 3335.24,1369.37 3322.22,1360.62"/>
    <poly id="100331162" type="building" color="255,230,230" fill="1" layer="-1.00" shape="3377.56,1432.71 3358.90,1415.13 3360.03,1413.40 3356.56,1409.62 3371.76,1392.97 3375.23,1396.30 3376.79,1395.02 3386.97,1405.68 3385.18,1407.62 3396.03,1417.86 3388.21,1426.95 3388.39,1429.15 3387.04,1430.87 3385.06,1431.07 3382.46,1428.84 3377.56,1432.71"/>
    <poly id="100331172" type="amenity" color="237,199,199" fill="1" layer="-1.00" shape="3143.28,1284.93 3129.13,1275.30 3135.66,1264.66 3123.88,1257.47 3133.34,1242.27 3118.51,1233.95 3101.63,1260.44 3070.00,1242.46 3071.59,1239.42 3065.92,1236.27 3072.23,1225.84 3077.24,1228.32 3080.85,1222.89 3091.31,1228.74 3087.93,1235.05 3096.86,1240.21 3127.09,1188.06 3131.67,1190.76 3134.82,1185.76 3144.19,1191.81 3146.68,1187.03 3147.98,1188.15 3150.00,1185.32 3152.39,1187.55 3157.13,1178.85 3150.34,1146.32 3158.73,1144.25 3159.79,1146.90 3165.31,1145.45 3169.25,1162.38 3180.59,1168.67 3196.92,1164.31 3198.16,1170.25 3201.47,1169.63 3202.89,1177.55 3170.23,1185.84 3166.16,1193.01 3172.49,1196.39 3167.09,1204.85 3172.82,1203.85 3176.32,1205.43 3177.17,1207.63 3179.16,1206.78 3178.32,1203.70 3188.91,1201.22 3190.99,1210.24 3181.06,1212.28 3180.43,1210.09 3178.44,1210.93 3180.76,1218.20 3178.94,1221.89 3181.33,1223.90 3183.76,1223.28 3183.72,1225.92 3214.47,1244.11 3205.46,1258.87 3169.91,1237.77 3167.21,1242.33 3169.03,1243.49 3143.28,1284.93"/>
    <poly id="100331172#1" type="building" color="255,230,230" fill="1" layer="-1.00" shape="3143.28,1284.93 3129.13,1275.30 3135.66,1264.66 3123.88,1257.47 3133.34,1242.27 3118.51,1233.95 3101.63,1260.44 3070.00,1242.46 3071.59,1239.42 3065.92,1236.27 3072.23,1225.84 3077.24,1228.32 3080.85,1222.89 3091.31,1228.74 3087.93,1235.05 3096.86,1240.21 3127.09,1188.06 3131.67,1190.76 3134.82,1185.76 3144.19,1191.81 3146.68,1187.03 3147.98,1188.15 3150.00,1185.32 3152.39,1187.55 3157.13,1178.85 3150.34,1146.32 3158.73,1144.25 3159.79,1146.90 3165.31,1145.45 3169.25,1162.38 3180.59,1168.67 3196.92,1164.31 3198.16,1170.25 3201.47,1169.63 3202.89,1177.55 3170.23,1185.84 3166.16,1193.01 3172.49,1196.39 3167.09,1204.85 3172.82,1203.85 3176.32,1205.43 3177.17,1207.63 3179.16,1206.78 3178.32,1203.70 3188.91,1201.22 3190.99,1210.24 3181.06,1212.28 3180.43,1210.09 3178.44,1210.93 3180.76,1218.20 3178.94,1221.89 3181.33,1223.90 3183.76,1223.28 3183.72,1225.92 3214.47,1244.11 3205.46,1258.87 3169.91,1237.77 3167.21,1242.33 3169.03,1243.49 3143.28,1284.93"/>
    <poly id="100331204" type="amenity" color="237,199,199" fill="1" layer="-1.00" shape="3305.26,1200.94 3308.47,1207.34 3315.50,1207.87 3324.27,1194.41 3356.27,1216.79 3336.07,1245.20 3326.27,1238.49 3320.29,1241.90 3319.74,1248.92 3324.98,1252.06 3323.63,1253.79 3340.19,1264.55 3363.10,1230.92 3371.59,1236.95 3381.69,1222.86 3372.78,1216.37 3376.14,1211.60 3356.77,1197.95 3358.11,1196.21 3320.42,1170.91 3311.36,1174.95 3311.21,1185.24 3314.70,1187.27 3305.26,1200.94"/>
    <poly id="100331204#1" type="building" color="255,230,230" fill="1" layer="-1.00" shape="3305.26,1200.94 3308.47,1207.34 3315.50,1207.87 3324.27,1194.41 3356.27,1216.79 3336.07,1245.20 3326.27,1238.49 3320.29,1241.90 3319.74,1248.92 3324.98,1252.06 3323.63,1253.79 3340.19,1264.55 3363.10,1230.92 3371.59,1236.95 3381.69,1222.86 3372.78,1216.37 3376.14,1211.60 3356.77,1197.95 3358.11,1196.21 3320.42,1170.91 3311.36,1174.95 3311.21,1185.24 3314.70,1187.27 3305.26,1200.94"/>
    <poly id="100331207" type="building" color="255,230,230" fill="1" layer="-1.00" shape="3419.99,1418.86 3426.28,1409.75 3417.79,1403.72 3416.72,1405.53 3400.34,1393.82 3399.53,1395.60 3392.68,1390.86 3394.94,1387.17 3388.40,1382.91 3379.64,1395.49 3385.51,1399.96 3388.21,1396.06 3390.33,1397.42 3388.96,1400.02 3390.51,1401.38 3392.29,1398.97 3394.95,1401.19 3393.59,1403.58 3411.68,1415.23 3412.78,1413.50 3419.99,1418.86"/>
    <poly id="100361422" type="amenity" color="237,199,199" fill="1" layer="-1.00" shape="2815.20,1343.97 2812.38,1326.18 2808.85,1326.56 2800.58,1336.31 2778.37,1320.43 2794.98,1297.66 2805.66,1304.17 2811.16,1303.37 2809.35,1291.95 2799.76,1285.90 2800.25,1282.84 2792.20,1276.59 2794.44,1273.33 2797.72,1275.14 2807.59,1261.47 2809.11,1262.80 2813.38,1256.08 2821.76,1254.88 2824.16,1270.91 2827.69,1270.52 2827.28,1268.98 2833.45,1267.76 2830.05,1244.48 2839.09,1242.64 2838.05,1237.81 2845.77,1236.82 2852.76,1286.22 2882.73,1281.83 2883.50,1289.30 2900.04,1286.47 2901.00,1295.90 2844.81,1303.63 2847.04,1316.59 2851.67,1316.01 2853.01,1329.40 2834.94,1332.43 2834.88,1336.58 2822.09,1338.80 2822.69,1343.20 2815.20,1343.97"/>
    <poly id="100361422#1" type="building" color="255,230,230" fill="1" layer="-1.00" shape="2815.20,1343.97 2812.38,1326.18 2808.85,1326.56 2800.58,1336.31 2778.37,1320.43 2794.98,1297.66 2805.66,1304.17 2811.16,1303.37 2809.35,1291.95 2799.76,1285.90 2800.25,1282.84 2792.20,1276.59 2794.44,1273.33 2797.72,1275.14 2807.59,1261.47 2809.11,1262.80 2813.38,1256.08 2821.76,1254.88 2824.16,1270.91 2827.69,1270.52 2827.28,1268.98 2833.45,1267.76 2830.05,1244.48 2839.09,1242.64 2838.05,1237.81 2845.77,1236.82 2852.76,1286.22 2882.73,1281.83 2883.50,1289.30 2900.04,1286.47 2901.00,1295.90 2844.81,1303.63 2847.04,1316.59 2851.67,1316.01 2853.01,1329.40 2834.94,1332.43 2834.88,1336.58 2822.09,1338.80 2822.69,1343.20 2815.20,1343.97"/>
    <poly id="100361427" type="building" color="255,230,230" fill="1" layer="-1.00" shape="2863.98,1545.38 2864.71,1525.89 2869.10,1526.17 2871.27,1512.40 2905.27,1518.81 2905.44,1522.75 2937.02,1528.46 2937.51,1524.97 2957.47,1528.54 2956.76,1532.03 2988.34,1537.96 2986.25,1546.04 2982.07,1545.32 2979.50,1556.25 2954.51,1550.85 2948.29,1555.58 2943.75,1549.59 2939.58,1548.80 2936.28,1548.15 2906.25,1542.27 2907.24,1534.83 2900.67,1532.55 2900.02,1547.65 2887.93,1547.03 2887.73,1545.50 2863.98,1545.38"/>
    <poly id="100361434" type="building" color="255,230,230" fill="1" layer="-1.00" shape="2667.70,976.96 2660.59,973.50 2661.98,970.66 2654.01,966.78 2665.06,944.26 2679.62,951.36 2674.79,961.21 2672.95,960.30 2668.70,968.96 2671.06,970.12 2667.70,976.96"/>
    <poly id="100361440" type="building" color="255,230,230" fill="1" layer="-1.00" shape="2748.36,1483.39 2747.08,1464.83 2758.12,1464.08 2758.55,1470.37 2777.40,1469.09 2778.25,1481.34 2748.36,1483.39"/>
    <poly id="100361444" type="building" color="255,230,230" fill="1" layer="-1.00" shape="2922.30,1611.37 2924.22,1601.79 2927.07,1602.35 2928.72,1594.15 2904.67,1589.37 2911.65,1554.38 2934.14,1558.85 2936.28,1548.15 2939.58,1548.80 2937.51,1559.18 2946.36,1560.94 2939.38,1595.92 2932.04,1594.47 2930.50,1602.18 2937.47,1603.56 2935.39,1613.96 2922.30,1611.37"/>
    <poly id="100361447" type="building" color="255,230,230" fill="1" layer="-1.00" shape="2745.80,1448.11 2744.33,1424.71 2756.12,1423.99 2756.64,1432.40 2764.51,1431.92 2764.75,1435.89 2774.82,1435.26 2775.51,1446.27 2745.80,1448.11"/>
    <poly id="100361448" type="building" color="255,230,230" fill="1" layer="-1.00" shape="2790.78,1574.35 2793.13,1563.64 2801.46,1565.29 2802.86,1559.84 2800.67,1559.15 2802.76,1551.07 2804.96,1551.98 2806.59,1545.00 2798.26,1543.12 2800.83,1532.64 2830.42,1539.64 2828.29,1550.13 2819.74,1548.46 2815.71,1568.56 2823.74,1570.68 2820.98,1581.58 2790.78,1574.35"/>
    <poly id="100361457" type="building" color="255,230,230" fill="1" layer="-1.00" shape="2859.58,1622.66 2858.98,1618.06 2853.45,1618.60 2852.90,1612.93 2858.83,1612.79 2858.80,1615.20 2863.86,1615.06 2863.94,1609.58 2880.45,1608.72 2880.60,1613.10 2885.22,1612.96 2885.55,1620.85 2876.74,1621.81 2876.70,1624.44 2867.23,1624.96 2867.27,1622.34 2859.58,1622.66"/>
    <poly id="100361460" type="building" color="255,230,230" fill="1" layer="-1.00" shape="2824.40,1636.84 2823.69,1625.66 2839.98,1623.69 2839.39,1619.09 2830.85,1616.55 2831.78,1613.50 2838.35,1615.56 2836.42,1596.70 2863.73,1593.80 2864.67,1604.77 2849.46,1606.96 2849.82,1613.10 2852.90,1612.93 2853.45,1618.60 2853.66,1620.82 2851.24,1621.01 2852.60,1633.30 2824.40,1636.84"/>
    <poly id="100361464" type="building" color="255,230,230" fill="1" layer="-1.00" shape="2848.65,1518.31 2848.84,1512.51 2861.58,1512.91 2861.39,1518.72 2848.65,1518.31"/>
    <poly id="100361470" type="leisure" color="207,245,201" fill="1" layer="-2.00" shape="2832.66,1475.88 2847.22,1468.36 2836.89,1448.54 2822.35,1456.06 2832.66,1475.88"/>
    <poly id="100361471" type="building" color="255,230,230" fill="1" layer="-1.00" shape="2799.86,1524.08 2795.82,1513.95 2803.30,1510.58 2800.98,1505.70 2799.43,1506.54 2795.59,1497.09 2797.39,1496.44 2795.70,1491.81 2788.41,1494.34 2785.03,1484.87 2812.90,1473.00 2816.50,1483.12 2808.97,1486.30 2816.40,1505.03 2823.27,1501.63 2827.74,1512.43 2799.86,1524.08"/>
    <poly id="100361478" type="leisure" color="207,245,201" fill="1" layer="-2.00" shape="2835.98,1534.48 2836.31,1521.89 2861.03,1522.54 2860.70,1535.13 2835.98,1534.48"/>
    <poly id="100361478#1" type="sport" color="79,230,125" fill="1" layer="-2.00" shape="2835.98,1534.48 2836.31,1521.89 2861.03,1522.54 2860.70,1535.13 2835.98,1534.48"/>
    <poly id="100361480" type="building" color="255,230,230" fill="1" layer="-1.00" shape="2693.49,948.34 2689.86,942.70 2684.17,946.32 2673.11,929.13 2683.25,922.64 2678.95,915.96 2687.96,910.22 2691.76,916.12 2697.33,912.56 2708.62,930.09 2698.11,936.81 2702.02,942.88 2693.49,948.34"/>
    <poly id="100361483" type="building" color="255,230,230" fill="1" layer="-1.00" shape="2758.39,1639.20 2756.92,1616.17 2774.34,1615.06 2774.98,1625.30 2768.85,1625.69 2769.65,1638.49 2758.39,1639.20"/>
    <poly id="100361485" type="leisure" color="207,245,201" fill="1" layer="-2.00" shape="2851.23,1438.27 2852.27,1457.57 2879.57,1455.33 2878.58,1432.31 2853.04,1434.79 2851.23,1438.27"/>
    <poly id="100361485#1" type="sport" color="79,230,125" fill="1" layer="-2.00" shape="2851.23,1438.27 2852.27,1457.57 2879.57,1455.33 2878.58,1432.31 2853.04,1434.79 2851.23,1438.27"/>
    <poly id="100361487" type="building" color="255,230,230" fill="1" layer="-1.00" shape="2962.77,1652.78 2964.76,1633.65 2973.78,1634.59 2971.78,1653.71 2962.77,1652.78"/>
    <poly id="100361489" type="leisure" color="207,245,201" fill="1" layer="-2.00" shape="2859.18,1496.66 2854.19,1461.97 2892.74,1457.71 2896.74,1500.28 2862.68,1498.47 2859.18,1496.66"/>
    <poly id="100361489#1" type="sport" color="79,230,125" fill="1" layer="-2.00" shape="2859.18,1496.66 2854.19,1461.97 2892.74,1457.71 2896.74,1500.28 2862.68,1498.47 2859.18,1496.66"/>
    <poly id="100361505" type="building" color="255,230,230" fill="1" layer="-1.00" shape="2978.70,1645.57 2979.10,1640.55 2997.57,1642.02 2997.17,1647.05 2978.70,1645.57"/>
    <poly id="100361509" type="building" color="255,230,230" fill="1" layer="-1.00" shape="2981.91,1654.13 2982.57,1648.15 2974.78,1647.29 2974.12,1653.29 2981.91,1654.13"/>
    <poly id="100361515" type="building" color="255,230,230" fill="1" layer="-1.00" shape="2982.63,1506.06 2984.93,1493.66 2993.98,1495.34 2997.39,1476.96 3005.17,1478.40 3001.53,1497.94 3003.98,1498.39 3001.90,1509.61 2982.63,1506.06"/>
    <poly id="100361520" type="leisure" color="207,245,201" fill="1" layer="-2.00" shape="2906.84,1485.84 2928.41,1458.72 2877.61,1418.63 2856.05,1445.76 2906.84,1485.84"/>
    <poly id="100361520#1" type="sport" color="79,230,125" fill="1" layer="-2.00" shape="2906.84,1485.84 2928.41,1458.72 2877.61,1418.63 2856.05,1445.76 2906.84,1485.84"/>
    <poly id="100361534" type="amenity" color="237,199,199" fill="1" layer="-1.00" shape="2872.98,1577.06 2871.36,1552.49 2886.97,1552.72 2887.96,1575.75 2872.98,1577.06"/>
    <poly id="100361535" type="building" color="255,230,230" fill="1" layer="-1.00" shape="2759.93,1666.91 2758.19,1643.90 2769.76,1643.03 2770.75,1655.98 2776.09,1655.58 2776.86,1665.64 2759.93,1666.91"/>
    <poly id="100361538" type="building" color="255,230,230" fill="1" layer="-1.00" shape="2816.07,1665.42 2799.68,1658.83 2799.50,1655.76 2801.34,1650.09 2803.96,1651.23 2808.56,1637.92 2820.57,1643.36 2822.18,1638.77 2833.11,1643.54 2831.06,1647.67 2833.03,1648.79 2831.45,1651.84 2833.85,1652.97 2828.64,1663.41 2825.37,1661.83 2823.56,1664.65 2817.88,1662.16 2816.07,1665.42"/>
    <poly id="100376140" type="building" color="255,230,230" fill="1" layer="-1.00" shape="2019.89,2120.26 2014.42,2103.31 2049.99,2091.12 2053.79,2102.34 2050.92,2103.40 2050.50,2102.07 2027.74,2109.86 2028.36,2111.21 2024.84,2112.67 2026.30,2118.39 2019.89,2120.26"/>
    <poly id="100376141" type="building" color="255,230,230" fill="1" layer="-1.00" shape="1934.53,2155.10 1927.39,2134.10 1937.66,2130.64 1944.89,2151.94 1938.94,2153.95 1939.76,2156.36 1930.13,2159.61 1929.19,2156.90 1934.53,2155.10"/>
    <poly id="100376145" type="building" color="255,230,230" fill="1" layer="-1.00" shape="1958.11,2166.49 1948.58,2140.50 1951.24,2139.00 1947.86,2129.31 1952.93,2128.07 1951.44,2124.76 1955.80,2122.69 1957.14,2126.17 1962.22,2124.69 1966.04,2134.61 1968.47,2133.99 1978.22,2159.11 1958.11,2166.49"/>
    <poly id="100376152" type="building" color="255,230,230" fill="1" layer="-1.00" shape="1921.58,2135.15 1929.19,2156.90 1930.13,2159.61 1937.08,2179.46 1917.22,2186.36 1901.71,2142.06 1921.58,2135.15"/>
    <poly id="102586985" type="leisure" color="207,245,201" fill="1" layer="-2.00" shape="4921.43,1790.31 4889.45,1813.61 4865.95,1781.57 4897.93,1758.27 4921.43,1790.31"/>
    <poly id="102586985#1" type="water" color="181,209,209" fill="1" layer="-4.00" shape="4921.43,1790.31 4889.45,1813.61 4865.95,1781.57 4897.93,1758.27 4921.43,1790.31"/>
    <poly id="102586985#2" type="sport" color="79,230,125" fill="1" layer="-2.00" shape="4921.43,1790.31 4889.45,1813.61 4865.95,1781.57 4897.93,1758.27 4921.43,1790.31"/>
    <poly id="102590272" type="building" color="255,230,230" fill="1" layer="-1.00" shape="4763.21,1805.25 4754.04,1792.96 4766.79,1785.92 4766.26,1784.81 4764.71,1785.55 4762.36,1781.03 4764.56,1779.83 4798.27,1761.50 4805.82,1771.69 4778.64,1799.32 4777.24,1800.74 4773.34,1796.74 4774.57,1795.56 4773.59,1794.67 4770.59,1797.72 4763.21,1805.25"/>
    <poly id="102590300" type="building" color="255,230,230" fill="1" layer="-1.00" shape="4654.51,1659.49 4645.35,1647.19 4658.49,1640.41 4657.56,1639.04 4656.01,1639.78 4653.65,1635.26 4689.57,1615.74 4697.11,1625.92 4670.06,1653.45 4668.54,1654.98 4664.64,1650.97 4665.87,1649.79 4664.89,1648.90 4662.55,1651.30 4654.51,1659.49"/>
    <poly id="102590403" type="building" color="255,230,230" fill="1" layer="-1.00" shape="4816.02,1878.44 4806.85,1866.14 4816.50,1860.81 4819.60,1859.10 4819.06,1858.00 4817.51,1858.74 4815.16,1854.21 4818.29,1852.51 4851.07,1834.69 4858.62,1844.89 4832.15,1871.80 4830.05,1873.93 4826.14,1869.93 4827.37,1868.75 4826.40,1867.86 4824.97,1869.30 4816.02,1878.44"/>